ver_1.2
     RDKit          2D

 14 15  0  0  0  0  0  0  0  0999 V2000
    2.7760    0.0000    0.0000 C   0  0  0  0  0  0  0  0  0  0  0  0
    1.2760    0.0000    0.0000 N   0  0  0  0  0  0  0  0  0  0  0  0
    0.3943    1.2135    0.0000 C   0  0  0  0  0  0  0  0  0  0  0  0
   -1.0323    0.7500    0.0000 N   0  0  0  0  0  0  0  0  0  0  0  0
   -1.0323   -0.7500    0.0000 C   0  0  0  0  0  0  0  0  0  0  0  0
    0.3943   -1.2135    0.0000 C   0  0  0  0  0  0  0  0  0  0  0  0
    0.7062   -2.6807    0.0000 C   0  0  0  0  0  0  0  0  0  0  0  0
    2.1328   -3.1443    0.0000 O   0  0  0  0  0  0  0  0  0  0  0  0
   -0.4086   -3.6844    0.0000 N   0  0  0  0  0  0  0  0  0  0  0  0
   -1.8351   -3.2209    0.0000 C   0  0  0  0  0  0  0  0  0  0  0  0
   -2.9499   -4.2246    0.0000 O   0  0  0  0  0  0  0  0  0  0  0  0
   -2.1470   -1.7537    0.0000 N   0  0  0  0  0  0  0  0  0  0  0  0
   -3.5736   -1.2902    0.0000 C   0  0  0  0  0  0  0  0  0  0  0  0
   -0.0967   -5.1517    0.0000 C   0  0  0  0  0  0  0  0  0  0  0  0
  1  2  1  0
  2  3  1  0
  3  4  2  0
  4  5  1  0
  5  6  2  0
  6  7  1  0
  7  8  2  0
  7  9  1  0
  9 10  1  0
 10 11  2  0
 10 12  1  0
 12 13  1  0
  9 14  1  0
  6  2  1  0
 12  5  1  0
M  END
>  <ref_url>  (1) 
https://github.com/jthorton/EV-A71-2A-elaborations/tree/main/iteration2

>  <submitter_name>  (1) 
JTHorton/DJCole

>  <submitter_institution>  (1) 
Newcastle University (UK)

>  <submitter_email>  (1) 
Josh.Horton@newcastle.ac.uk

>  <generation_date>  (1) 
2024-04-02

>  <method>  (1) 
FEGrow-Elaborations

>  <cnnaffinityIC50>  (1) 
cnnaffinityIC50

>  <cnnaffinity>  (1) 
cnnaffinity

>  <rationale>  (1) 
rationale

$$$$
Z700712754
     RDKit          3D

 23 26  0  0  0  0  0  0  0  0999 V2000
    9.9193   17.6011   17.3200 O   0  0  0  0  0  0  0  0  0  0  0  0
   10.2848   16.7845   18.1345 C   0  0  0  0  0  0  0  0  0  0  0  0
   11.0417   15.6349   17.8887 N   0  0  0  0  0  0  0  0  0  0  0  0
   11.2533   14.8549   18.9941 C   0  0  0  0  0  0  0  0  0  0  0  0
   11.9258   13.8516   19.0255 O   0  0  0  0  0  0  0  0  0  0  0  0
   10.5313   15.5677   20.1587 C   0  0  0  0  0  0  0  0  0  0  0  0
    9.2764   14.8128   20.6183 C   0  0  0  0  0  0  0  0  0  0  0  0
    9.6096   13.6180   21.4955 C   0  0  0  0  0  0  0  0  0  0  0  0
   10.4305   14.0364   22.6103 N   0  0  0  0  0  0  0  0  0  0  0  0
   10.1307   13.8707   23.9359 C   0  0  0  0  0  0  0  0  0  0  0  0
   10.5782   14.5995   24.8049 O   0  0  0  0  0  0  0  0  0  0  0  0
    9.2025   12.7307   24.2871 C   0  0  0  0  0  0  0  0  0  0  0  0
    8.1658   12.9305   25.2103 C   0  0  0  0  0  0  0  0  0  0  0  0
    7.3706   11.8781   25.6488 C   0  0  0  0  0  0  0  0  0  0  0  0
    7.5964   10.5643   25.2101 C   0  0  0  0  0  0  0  0  0  0  0  0
    8.6372   10.3730   24.3351 C   0  0  0  0  0  0  0  0  0  0  0  0
    9.4150   11.4262   23.8731 C   0  0  0  0  0  0  0  0  0  0  0  0
   10.3444   10.9429   22.9892 O   0  0  0  0  0  0  0  0  0  0  0  0
   10.3076    9.5278   23.1661 C   0  0  0  0  0  0  0  0  0  0  0  0
    9.0566    9.2024   23.7535 O   0  0  0  0  0  0  0  0  0  0  0  0
   11.7219   14.5604   22.1833 C   0  0  0  0  0  0  0  0  0  0  0  0
   11.5531   15.7899   21.2902 C   0  0  0  0  0  0  0  0  0  0  0  0
   10.1192   16.8035   19.4979 N   0  0  0  0  0  0  0  0  0  0  0  0
  1  2  2  0
  2  3  1  0
  3  4  1  0
  4  5  2  0
  4  6  1  0
  6  7  1  0
  7  8  1  0
  8  9  1  0
  9 10  1  0
 10 11  2  0
 10 12  1  0
 12 13  2  0
 13 14  1  0
 14 15  2  0
 15 16  1  0
 16 17  2  0
 17 18  1  0
 18 19  1  0
 19 20  1  0
  9 21  1  0
 21 22  1  0
  6 23  1  0
 23  2  1  0
 22  6  1  0
 17 12  1  0
 20 16  1  0
M  END
>  <cnnaffinity>  (2) 
-5.8829

>  <cnnaffinityIC50>  (2) 
1309.4834079858076 nanomolar

>  <smiles>  (2) 
O=C1NC(=O)C2(CCN(C(=O)C3=CC=CC4=C3OCO4)CC2)N1 Z700712754

>  <ref_pdb>  (2) 
Ax0310a

>  <ref_mols>  (2) 
Ax0351a

>  <rationale>  (2) 
Enamine real space elaborations around x0351.

>  <original SMILES>  (2) 
O=C1NC(=O)C2(CCN(C(=O)C3=CC=CC4=C3OCO4)CC2)N1

$$$$
Z3939980768
     RDKit          3D

 23 26  0  0  0  0  0  0  0  0999 V2000
   12.4153   14.8420   22.4313 C   0  0  0  0  0  0  0  0  0  0  0  0
   11.0589   14.8728   21.7332 C   0  0  2  0  0  0  0  0  0  0  0  0
   10.2371   13.8042   22.3310 N   0  0  0  0  0  0  0  0  0  0  0  0
    9.7648   13.8599   23.6342 C   0  0  0  0  0  0  0  0  0  0  0  0
    9.9410   14.8675   24.2985 O   0  0  0  0  0  0  0  0  0  0  0  0
    9.0184   12.7444   24.2145 C   0  0  0  0  0  0  0  0  0  0  0  0
    7.9680   12.9214   25.1470 C   0  0  0  0  0  0  0  0  0  0  0  0
    7.2784   11.8119   25.6605 C   0  0  0  0  0  0  0  0  0  0  0  0
    5.8207   12.0638   26.8724 Br  0  0  0  0  0  0  0  0  0  0  0  0
    7.6592   10.5183   25.2760 C   0  0  0  0  0  0  0  0  0  0  0  0
    8.7077   10.3507   24.3669 C   0  0  0  0  0  0  0  0  0  0  0  0
    9.3642   11.4469   23.8483 C   0  0  0  0  0  0  0  0  0  0  0  0
   10.3598   11.0793   23.0052 O   0  0  0  0  0  0  0  0  0  0  0  0
   10.3641    9.6417   23.0711 C   0  0  0  0  0  0  0  0  0  0  0  0
    9.2421    9.2054   23.8691 O   0  0  0  0  0  0  0  0  0  0  0  0
   11.2318   14.7931   20.2201 C   0  0  0  0  0  0  0  0  0  0  0  0
   12.1041   14.0744   19.5662 N   0  0  0  0  0  0  0  0  0  0  0  0
   11.9482   14.3924   18.2477 N   0  0  0  0  0  0  0  0  0  0  0  0
   11.0338   15.2791   18.0814 N   0  0  0  0  0  0  0  0  0  0  0  0
   10.5574   15.5724   19.3052 N   0  0  0  0  0  0  0  0  0  0  0  0
    9.7929   16.7873   19.6227 C   0  0  0  0  0  0  0  0  0  0  0  0
    8.3875   16.6978   20.2021 C   0  0  0  0  0  0  0  0  0  0  0  0
    8.5934   17.1969   18.7737 C   0  0  0  0  0  0  0  0  0  0  0  0
  2  1  1  1
  2  3  1  0
  3  4  1  0
  4  5  2  0
  4  6  1  0
  6  7  2  0
  7  8  1  0
  8  9  1  0
  8 10  2  0
 10 11  1  0
 11 12  2  0
 12 13  1  0
 13 14  1  0
 14 15  1  0
  2 16  1  0
 16 17  2  0
 17 18  1  0
 18 19  2  0
 19 20  1  0
 20 21  1  0
 21 22  1  0
 22 23  1  0
 12  6  1  0
 20 16  1  0
 23 21  1  0
 15 11  1  0
M  END
>  <cnnaffinity>  (3) 
-5.85667

>  <cnnaffinityIC50>  (3) 
1391.009192366978 nanomolar

>  <smiles>  (3) 
CC(NC(=O)C1=CC(Br)=CC2=C1OCO2)C1=NN=NN1C1CC1 Z3939980768

>  <ref_pdb>  (3) 
Ax0310a

>  <ref_mols>  (3) 
Ax0351a

>  <rationale>  (3) 
Enamine real space elaborations around x0351.

>  <original SMILES>  (3) 
CC(NC(=O)C1=CC(Br)=CC2=C1OCO2)C1=NN=NN1C1CC1

$$$$
Z5413245914
     RDKit          3D

 23 25  0  0  0  0  0  0  0  0999 V2000
   13.8674   14.9081   25.4321 C   0  0  0  0  0  0  0  0  0  0  0  0
   13.4336   14.2545   24.1190 C   0  0  0  0  0  0  0  0  0  0  0  0
   13.5887   12.7330   24.2088 C   0  0  0  0  0  0  0  0  0  0  0  0
   12.0898   14.6449   23.6303 N   0  0  0  0  0  0  0  0  0  0  0  0
   11.9859   15.0305   22.2282 C   0  0  0  0  0  0  0  0  0  0  0  0
   11.9939   13.8490   21.2408 C   0  0  0  0  0  0  0  0  0  0  0  0
   11.9241   14.3036   19.8239 C   0  0  0  0  0  0  0  0  0  0  0  0
   10.8850   14.1660   19.0176 N   0  0  0  0  0  0  0  0  0  0  0  0
   11.3532   14.7116   17.9073 N   0  0  0  0  0  0  0  0  0  0  0  0
   12.5785   15.1701   17.9967 N   0  0  0  0  0  0  0  0  0  0  0  0
   12.9634   14.9266   19.2138 N   0  0  0  0  0  0  0  0  0  0  0  0
   10.9875   14.3498   24.4041 C   0  0  0  0  0  0  0  0  0  0  0  0
   11.0418   14.2814   25.6219 O   0  0  0  0  0  0  0  0  0  0  0  0
    9.6230   14.1283   23.7209 C   0  0  0  0  0  0  0  0  0  0  0  0
    8.9169   12.8911   24.2348 C   0  0  0  0  0  0  0  0  0  0  0  0
    7.8732   12.9700   25.1681 C   0  0  0  0  0  0  0  0  0  0  0  0
    7.2683   11.8330   25.7005 C   0  0  0  0  0  0  0  0  0  0  0  0
    7.6805   10.5481   25.3188 C   0  0  0  0  0  0  0  0  0  0  0  0
    8.6911   10.4732   24.3872 C   0  0  0  0  0  0  0  0  0  0  0  0
    9.2837   11.6128   23.8541 C   0  0  0  0  0  0  0  0  0  0  0  0
   10.1961   11.2363   22.8946 O   0  0  0  0  0  0  0  0  0  0  0  0
   10.3928    9.8448   23.1327 C   0  0  0  0  0  0  0  0  0  0  0  0
    9.2355    9.3548   23.7978 O   0  0  0  0  0  0  0  0  0  0  0  0
  1  2  1  0
  2  3  1  0
  2  4  1  0
  4  5  1  0
  5  6  1  0
  6  7  1  0
  7  8  2  0
  8  9  1  0
  9 10  1  0
 10 11  2  0
  4 12  1  0
 12 13  2  0
 12 14  1  0
 14 15  1  0
 15 16  2  0
 16 17  1  0
 17 18  2  0
 18 19  1  0
 19 20  2  0
 20 21  1  0
 21 22  1  0
 22 23  1  0
 11  7  1  0
 20 15  1  0
 23 19  1  0
M  END
>  <cnnaffinity>  (4) 
-5.84543

>  <cnnaffinityIC50>  (4) 
1427.4798941981692 nanomolar

>  <smiles>  (4) 
CC(C)N(CCC1=NNN=N1)C(=O)CC1=CC=CC2=C1OCO2 Z5413245914

>  <ref_pdb>  (4) 
Ax0310a

>  <ref_mols>  (4) 
Ax0351a

>  <rationale>  (4) 
Enamine real space elaborations around x0351.

>  <original SMILES>  (4) 
CC(C)N(CCC1=NNN=N1)C(=O)CC1=CC=CC2=C1OCO2

$$$$
Z2433441736
     RDKit          3D

 23 26  0  0  0  0  0  0  0  0999 V2000
   11.0855   15.3438   25.7947 O   0  0  0  0  0  0  0  0  0  0  0  0
   11.7380   14.6482   25.0245 C   0  0  0  0  0  0  0  0  0  0  0  0
   11.1564   14.0476   23.9319 N   0  0  0  0  0  0  0  0  0  0  0  0
    9.7222   14.0591   23.7213 C   0  0  0  0  0  0  0  0  0  0  0  0
    9.0014   12.8429   24.2778 C   0  0  0  0  0  0  0  0  0  0  0  0
    7.9313   12.9539   25.1782 C   0  0  0  0  0  0  0  0  0  0  0  0
    7.2739   11.8350   25.6815 C   0  0  0  0  0  0  0  0  0  0  0  0
    7.6508   10.5372   25.3048 C   0  0  0  0  0  0  0  0  0  0  0  0
    8.7078   10.4348   24.4299 C   0  0  0  0  0  0  0  0  0  0  0  0
    9.3679   11.5546   23.9419 C   0  0  0  0  0  0  0  0  0  0  0  0
   10.3657   11.1648   23.0852 O   0  0  0  0  0  0  0  0  0  0  0  0
   10.4154    9.7419   23.1788 C   0  0  0  0  0  0  0  0  0  0  0  0
    9.2647    9.3009   23.8941 O   0  0  0  0  0  0  0  0  0  0  0  0
   13.0921   14.4040   25.2009 N   0  0  0  0  0  0  0  0  0  0  0  0
   13.7724   15.1192   26.2808 C   0  0  0  0  0  0  0  0  0  0  0  0
   14.3609   14.1567   27.3123 C   0  0  0  0  0  0  0  0  0  0  0  0
   15.1130   13.0916   26.5724 C   0  0  0  0  0  0  0  0  0  0  0  0
   14.9568   12.8115   25.2520 C   0  0  0  0  0  0  0  0  0  0  0  0
   15.8853   11.8417   24.7652 C   0  0  0  0  0  0  0  0  0  0  0  0
   16.6634   11.3484   25.7643 C   0  0  0  0  0  0  0  0  0  0  0  0
   17.8643   10.1201   25.6402 Cl  0  0  0  0  0  0  0  0  0  0  0  0
   16.3141   12.0830   27.2998 S   0  0  0  0  0  0  0  0  0  0  0  0
   13.8125   13.3765   24.4535 C   0  0  0  0  0  0  0  0  0  0  0  0
  1  2  2  0
  2  3  1  0
  3  4  1  0
  4  5  1  0
  5  6  2  0
  6  7  1  0
  7  8  2  0
  8  9  1  0
  9 10  2  0
 10 11  1  0
 11 12  1  0
 12 13  1  0
  2 14  1  0
 14 15  1  0
 15 16  1  0
 16 17  1  0
 17 18  2  0
 18 19  1  0
 19 20  2  0
 20 21  1  0
 20 22  1  0
 18 23  1  0
 10  5  1  0
 23 14  1  0
 13  9  1  0
 22 17  1  0
M  END
>  <cnnaffinity>  (5) 
-5.81261

>  <cnnaffinityIC50>  (5) 
1539.5365361457957 nanomolar

>  <smiles>  (5) 
O=C(NCC1=CC=CC2=C1OCO2)N1CCC2=C(C=C(Cl)S2)C1 Z2433441736

>  <ref_pdb>  (5) 
Ax0310a

>  <ref_mols>  (5) 
Ax0351a

>  <rationale>  (5) 
Enamine real space elaborations around x0351.

>  <original SMILES>  (5) 
O=C(NCC1=CC=CC2=C1OCO2)N1CCC2=C(C=C(Cl)S2)C1

$$$$
Z5515073476
     RDKit          3D

 23 25  0  0  0  0  0  0  0  0999 V2000
   11.1858   15.7861   21.9963 C   0  0  0  0  0  0  0  0  0  0  0  0
   11.7489   14.3977   21.6657 C   0  0  0  0  0  0  0  0  0  0  0  0
   13.0707   14.2380   22.4400 C   0  0  0  0  0  0  0  0  0  0  0  0
   10.8355   13.3530   22.2122 N   0  0  0  0  0  0  0  0  0  0  0  0
   10.0487   13.5153   23.3541 C   0  0  0  0  0  0  0  0  0  0  0  0
    9.9741   14.6305   23.8446 O   0  0  0  0  0  0  0  0  0  0  0  0
    9.2672   12.4353   23.9872 C   0  0  0  0  0  0  0  0  0  0  0  0
    9.5363   11.0900   23.7132 C   0  0  0  0  0  0  0  0  0  0  0  0
   10.4748   10.5953   22.8741 O   0  0  0  0  0  0  0  0  0  0  0  0
   10.2727    9.1687   22.9098 C   0  0  0  0  0  0  0  0  0  0  0  0
   11.4337    8.5273   23.2009 F   0  0  0  0  0  0  0  0  0  0  0  0
    9.8121    8.7599   21.7004 F   0  0  0  0  0  0  0  0  0  0  0  0
    9.2719    8.8541   23.8963 O   0  0  0  0  0  0  0  0  0  0  0  0
    8.8354   10.0667   24.3254 C   0  0  0  0  0  0  0  0  0  0  0  0
    7.8243   10.3446   25.2428 C   0  0  0  0  0  0  0  0  0  0  0  0
    7.5312   11.6810   25.5419 C   0  0  0  0  0  0  0  0  0  0  0  0
    8.2455   12.7197   24.9260 C   0  0  0  0  0  0  0  0  0  0  0  0
    7.8068   14.5267   25.3882 Br  0  0  0  0  0  0  0  0  0  0  0  0
   11.9841   14.4295   20.1227 C   0  0  0  0  0  0  0  0  0  0  0  0
   13.0937   14.9153   19.6184 N   0  0  0  0  0  0  0  0  0  0  0  0
   12.9136   14.9044   18.2209 O   0  0  0  0  0  0  0  0  0  0  0  0
   11.6827   14.3803   18.0071 C   0  0  0  0  0  0  0  0  0  0  0  0
   11.0632   14.1120   19.1230 N   0  0  0  0  0  0  0  0  0  0  0  0
  1  2  1  0
  2  3  1  0
  2  4  1  0
  4  5  1  0
  5  6  2  0
  5  7  1  0
  7  8  2  0
  8  9  1  0
  9 10  1  0
 10 11  1  0
 10 12  1  0
 10 13  1  0
 13 14  1  0
 14 15  2  0
 15 16  1  0
 16 17  2  0
 17 18  1  0
  2 19  1  0
 19 20  2  0
 20 21  1  0
 21 22  1  0
 22 23  2  0
 17  7  1  0
 23 19  1  0
 14  8  1  0
M  END
>  <cnnaffinity>  (6) 
-5.80538

>  <cnnaffinityIC50>  (6) 
1565.3807901707244 nanomolar

>  <smiles>  (6) 
CC(C)(NC(=O)C1=C2OC(F)(F)OC2=CC=C1Br)C1=NOC=N1 Z5515073476

>  <ref_pdb>  (6) 
Ax0310a

>  <ref_mols>  (6) 
Ax0351a

>  <rationale>  (6) 
Enamine real space elaborations around x0351.

>  <original SMILES>  (6) 
CC(C)(NC(=O)C1=C2OC(F)(F)OC2=CC=C1Br)C1=NOC=N1

$$$$
Z4046203212
     RDKit          3D

 23 26  0  0  0  0  0  0  0  0999 V2000
    9.8386   14.8421   24.4059 O   0  0  0  0  0  0  0  0  0  0  0  0
    9.8130   13.8231   23.7295 C   0  0  0  0  0  0  0  0  0  0  0  0
   10.4192   13.7221   22.5241 N   0  0  0  0  0  0  0  0  0  0  0  0
   11.1148   14.8688   21.9668 C   0  0  0  0  0  0  0  0  0  0  0  0
   11.5468   14.6262   20.5594 C   0  0  0  0  0  0  0  0  0  0  0  0
   12.7586   14.1479   20.3216 N   0  0  0  0  0  0  0  0  0  0  0  0
   12.8338   14.0652   18.9876 N   0  0  0  0  0  0  0  0  0  0  0  0
   11.7089   14.4789   18.3638 C   0  0  0  0  0  0  0  0  0  0  0  0
   10.8324   14.8626   19.3538 C   0  0  0  0  0  0  0  0  0  0  0  0
    9.4663   15.4169   19.1993 C   0  0  0  0  0  0  0  0  0  0  0  0
    9.2155   16.8453   19.5854 C   0  0  0  0  0  0  0  0  0  0  0  0
    9.2044   16.4492   18.1376 C   0  0  0  0  0  0  0  0  0  0  0  0
    9.0537   12.6199   24.1940 C   0  0  0  0  0  0  0  0  0  0  0  0
    9.3298   11.3269   23.8102 C   0  0  0  0  0  0  0  0  0  0  0  0
   10.2475   10.8849   22.8868 O   0  0  0  0  0  0  0  0  0  0  0  0
   10.2471    9.5015   22.9291 C   0  0  0  0  0  0  0  0  0  0  0  0
   11.4272    9.0365   23.3682 F   0  0  0  0  0  0  0  0  0  0  0  0
   10.0751    8.9904   21.7073 F   0  0  0  0  0  0  0  0  0  0  0  0
    9.2245    9.1009   23.7670 O   0  0  0  0  0  0  0  0  0  0  0  0
    8.6763   10.2340   24.3406 C   0  0  0  0  0  0  0  0  0  0  0  0
    7.6607   10.3655   25.2578 C   0  0  0  0  0  0  0  0  0  0  0  0
    7.3368   11.6821   25.6361 C   0  0  0  0  0  0  0  0  0  0  0  0
    8.0333   12.7765   25.1426 C   0  0  0  0  0  0  0  0  0  0  0  0
  1  2  2  0
  2  3  1  0
  3  4  1  0
  4  5  1  0
  5  6  2  0
  6  7  1  0
  7  8  1  0
  8  9  2  0
  9 10  1  0
 10 11  1  0
 11 12  1  0
  2 13  1  0
 13 14  2  0
 14 15  1  0
 15 16  1  0
 16 17  1  0
 16 18  1  0
 16 19  1  0
 19 20  1  0
 20 21  2  0
 21 22  1  0
 22 23  2  0
  9  5  1  0
 12 10  1  0
 23 13  1  0
 20 14  1  0
M  END
>  <cnnaffinity>  (7) 
-5.77983

>  <cnnaffinityIC50>  (7) 
1660.2366624116466 nanomolar

>  <smiles>  (7) 
O=C(NCC1=NNC=C1C1CC1)C1=C2OC(F)(F)OC2=CC=C1 Z4046203212

>  <ref_pdb>  (7) 
Ax0310a

>  <ref_mols>  (7) 
Ax0351a

>  <rationale>  (7) 
Enamine real space elaborations around x0351.

>  <original SMILES>  (7) 
O=C(NCC1=NNC=C1C1CC1)C1=C2OC(F)(F)OC2=CC=C1

$$$$
Z5506559082
     RDKit          3D

 23 25  0  0  0  0  0  0  0  0999 V2000
   11.4953   14.7499   18.0385 C   0  0  0  0  0  0  0  0  0  0  0  0
   11.2300   14.8363   19.4733 N   0  0  0  0  0  0  0  0  0  0  0  0
    9.9679   15.4090   19.9226 C   0  0  0  0  0  0  0  0  0  0  0  0
   12.2000   14.4546   20.4043 C   0  0  0  0  0  0  0  0  0  0  0  0
   13.3335   14.2632   19.9783 O   0  0  0  0  0  0  0  0  0  0  0  0
   11.9184   14.3839   21.9519 C   0  0  0  0  0  0  0  0  0  0  0  0
   10.8278   13.5168   22.4729 N   0  0  0  0  0  0  0  0  0  0  0  0
   10.1402   13.7196   23.6679 C   0  0  0  0  0  0  0  0  0  0  0  0
   10.2291   14.7780   24.2656 O   0  0  0  0  0  0  0  0  0  0  0  0
    9.2914   12.6681   24.2301 C   0  0  0  0  0  0  0  0  0  0  0  0
    9.5314   11.3493   23.8636 C   0  0  0  0  0  0  0  0  0  0  0  0
   10.5023   10.9259   23.0234 O   0  0  0  0  0  0  0  0  0  0  0  0
   10.3192    9.5016   22.9618 C   0  0  0  0  0  0  0  0  0  0  0  0
   11.4596    8.8747   23.3478 F   0  0  0  0  0  0  0  0  0  0  0  0
   10.0133    9.1547   21.6849 F   0  0  0  0  0  0  0  0  0  0  0  0
    9.2269    9.1272   23.8291 O   0  0  0  0  0  0  0  0  0  0  0  0
    8.7792   10.3017   24.3457 C   0  0  0  0  0  0  0  0  0  0  0  0
    7.7270   10.5508   25.2304 C   0  0  0  0  0  0  0  0  0  0  0  0
    7.4568   11.8732   25.6198 C   0  0  0  0  0  0  0  0  0  0  0  0
    8.2393   12.9315   25.1325 C   0  0  0  0  0  0  0  0  0  0  0  0
    7.8528   14.7212   25.6942 Br  0  0  0  0  0  0  0  0  0  0  0  0
   12.2580   15.6722   22.7078 C   0  0  0  0  0  0  0  0  0  0  0  0
   13.0810   14.4177   22.9453 C   0  0  0  0  0  0  0  0  0  0  0  0
  1  2  1  0
  2  3  1  0
  2  4  1  0
  4  5  2  0
  4  6  1  0
  6  7  1  0
  7  8  1  0
  8  9  2  0
  8 10  1  0
 10 11  2  0
 11 12  1  0
 12 13  1  0
 13 14  1  0
 13 15  1  0
 13 16  1  0
 16 17  1  0
 17 18  2  0
 18 19  1  0
 19 20  2  0
 20 21  1  0
  6 22  1  0
 22 23  1  0
 23  6  1  0
 20 10  1  0
 17 11  1  0
M  END
>  <cnnaffinity>  (8) 
-5.75266

>  <cnnaffinityIC50>  (8) 
1767.4209558314603 nanomolar

>  <smiles>  (8) 
CN(C)C(=O)C1(NC(=O)C2=C3OC(F)(F)OC3=CC=C2Br)CC1 Z5506559082

>  <ref_pdb>  (8) 
Ax0310a

>  <ref_mols>  (8) 
Ax0351a

>  <rationale>  (8) 
Enamine real space elaborations around x0351.

>  <original SMILES>  (8) 
CN(C)C(=O)C1(NC(=O)C2=C3OC(F)(F)OC3=CC=C2Br)CC1

$$$$
Z5604043259
     RDKit          3D

 23 25  0  0  0  0  0  0  0  0999 V2000
   12.4055   14.7716   22.3807 C   0  0  0  0  0  0  0  0  0  0  0  0
   11.0181   14.8265   21.7399 C   0  0  2  0  0  0  0  0  0  0  0  0
   10.2344   13.7157   22.3136 N   0  0  0  0  0  0  0  0  0  0  0  0
    9.7398   13.7536   23.6102 C   0  0  0  0  0  0  0  0  0  0  0  0
    9.8573   14.7793   24.2638 O   0  0  0  0  0  0  0  0  0  0  0  0
    9.0508   12.6123   24.1992 C   0  0  0  0  0  0  0  0  0  0  0  0
    9.3908   11.3185   23.8115 C   0  0  0  0  0  0  0  0  0  0  0  0
   10.3254   10.9528   22.9001 O   0  0  0  0  0  0  0  0  0  0  0  0
   10.3005    9.5136   22.9278 C   0  0  0  0  0  0  0  0  0  0  0  0
   11.5086    9.0490   23.3382 F   0  0  0  0  0  0  0  0  0  0  0  0
   10.0241    9.0365   21.6883 F   0  0  0  0  0  0  0  0  0  0  0  0
    9.2678    9.0734   23.8337 O   0  0  0  0  0  0  0  0  0  0  0  0
    8.7668   10.2194   24.3607 C   0  0  0  0  0  0  0  0  0  0  0  0
    7.7566   10.3848   25.3104 C   0  0  0  0  0  0  0  0  0  0  0  0
    7.3817   11.6790   25.6992 C   0  0  0  0  0  0  0  0  0  0  0  0
    8.0324   12.7917   25.1565 C   0  0  0  0  0  0  0  0  0  0  0  0
    7.4749   14.5476   25.6809 Br  0  0  0  0  0  0  0  0  0  0  0  0
   11.0892   14.8662   20.2095 C   0  0  0  0  0  0  0  0  0  0  0  0
   12.0179   14.3444   19.4443 N   0  0  0  0  0  0  0  0  0  0  0  0
   11.6317   14.6900   18.1579 C   0  0  0  0  0  0  0  0  0  0  0  0
   10.5485   15.4214   18.1126 N   0  0  0  0  0  0  0  0  0  0  0  0
   10.1858   15.5436   19.3998 N   0  0  0  0  0  0  0  0  0  0  0  0
    9.1303   16.4728   19.8158 C   0  0  0  0  0  0  0  0  0  0  0  0
  2  1  1  1
  2  3  1  0
  3  4  1  0
  4  5  2  0
  4  6  1  0
  6  7  2  0
  7  8  1  0
  8  9  1  0
  9 10  1  0
  9 11  1  0
  9 12  1  0
 12 13  1  0
 13 14  2  0
 14 15  1  0
 15 16  2  0
 16 17  1  0
  2 18  1  0
 18 19  2  0
 19 20  1  0
 20 21  2  0
 21 22  1  0
 22 23  1  0
 16  6  1  0
 22 18  1  0
 13  7  1  0
M  END
>  <cnnaffinity>  (9) 
-5.75159

>  <cnnaffinityIC50>  (9) 
1771.7808362348512 nanomolar

>  <smiles>  (9) 
C[C@H](NC(=O)C1=C2OC(F)(F)OC2=CC=C1Br)C1=NC=NN1C Z5604043259

>  <ref_pdb>  (9) 
Ax0310a

>  <ref_mols>  (9) 
Ax0351a

>  <rationale>  (9) 
Enamine real space elaborations around x0351.

>  <original SMILES>  (9) 
C[C@H](NC(=O)C1=C2OC(F)(F)OC2=CC=C1Br)C1=NC=NN1C

$$$$
Z2635938908
     RDKit          3D

 23 24  0  0  0  0  0  0  0  0999 V2000
    9.3111   14.9384   20.0858 C   0  0  0  0  0  0  0  0  0  0  0  0
   10.3620   15.4780   21.0409 C   0  0  0  0  0  0  0  0  0  0  0  0
   11.3316   14.4695   21.6602 C   0  0  1  0  0  0  0  0  0  0  0  0
   10.5939   13.4208   22.3588 N   0  0  0  0  0  0  0  0  0  0  0  0
    9.7185   13.6155   23.3715 C   0  0  0  0  0  0  0  0  0  0  0  0
    9.4035   14.7179   23.8022 O   0  0  0  0  0  0  0  0  0  0  0  0
    9.1172   12.3828   23.9594 C   0  0  0  0  0  0  0  0  0  0  0  0
    8.0919   12.5303   24.9044 C   0  0  0  0  0  0  0  0  0  0  0  0
    7.4797   11.4296   25.4848 C   0  0  0  0  0  0  0  0  0  0  0  0
    7.8603   10.1197   25.1500 C   0  0  0  0  0  0  0  0  0  0  0  0
    8.8592    9.9918   24.2201 C   0  0  0  0  0  0  0  0  0  0  0  0
    9.4713   11.0866   23.6437 C   0  0  0  0  0  0  0  0  0  0  0  0
   10.4261   10.6228   22.7635 O   0  0  0  0  0  0  0  0  0  0  0  0
   10.3172    9.2447   22.7070 C   0  0  0  0  0  0  0  0  0  0  0  0
    9.8746    8.8582   21.4965 F   0  0  0  0  0  0  0  0  0  0  0  0
   11.5028    8.6601   22.8779 F   0  0  0  0  0  0  0  0  0  0  0  0
    9.4283    8.8507   23.6853 O   0  0  0  0  0  0  0  0  0  0  0  0
   12.1925   13.6803   20.6635 C   0  0  0  0  0  0  0  0  0  0  0  0
   12.3721   14.0992   19.3812 N   0  0  0  0  0  0  0  0  0  0  0  0
   12.7436   12.6829   21.1004 O   0  0  0  0  0  0  0  0  0  0  0  0
   12.3454   15.1961   22.6063 C   0  0  0  0  0  0  0  0  0  0  0  0
   13.4305   15.8976   21.7900 C   0  0  0  0  0  0  0  0  0  0  0  0
   13.0080   14.2546   23.6185 C   0  0  0  0  0  0  0  0  0  0  0  0
  1  2  1  0
  3  2  1  6
  3  4  1  0
  4  5  1  0
  5  6  2  0
  5  7  1  0
  7  8  2  0
  8  9  1  0
  9 10  2  0
 10 11  1  0
 11 12  2  0
 12 13  1  0
 13 14  1  0
 14 15  1  0
 14 16  1  0
 14 17  1  0
  3 18  1  0
 18 19  1  0
 18 20  2  0
  3 21  1  0
 21 22  1  0
 21 23  1  0
 12  7  1  0
 17 11  1  0
M  END
>  <cnnaffinity>  (10) 
-5.74632

>  <cnnaffinityIC50>  (10) 
1793.4117052998124 nanomolar

>  <smiles>  (10) 
CCC(NC(=O)C1=CC=CC2=C1OC(F)(F)O2)(C(N)=O)C(C)C Z2635938908

>  <ref_pdb>  (10) 
Ax0310a

>  <ref_mols>  (10) 
Ax0351a

>  <rationale>  (10) 
Enamine real space elaborations around x0351.

>  <original SMILES>  (10) 
CCC(NC(=O)C1=CC=CC2=C1OC(F)(F)O2)(C(N)=O)C(C)C

$$$$
Z5339719725
     RDKit          3D

 22 25  0  0  0  0  0  0  0  0999 V2000
    9.8745   14.6017   23.1062 O   0  0  0  0  0  0  0  0  0  0  0  0
    9.8481   13.4436   22.7131 C   0  0  0  0  0  0  0  0  0  0  0  0
   10.5166   13.1409   21.5387 N   0  0  0  0  0  0  0  0  0  0  0  0
   11.3312   14.1123   20.7802 C   0  0  0  0  0  0  0  0  0  0  0  0
   10.5239   15.1311   20.0037 C   0  0  0  0  0  0  0  0  0  0  0  0
    9.8231   16.0024   20.6623 N   0  0  0  0  0  0  0  0  0  0  0  0
    9.4343   17.0727   19.8177 O   0  0  0  0  0  0  0  0  0  0  0  0
    9.7051   16.6845   18.4828 C   0  0  0  0  0  0  0  0  0  0  0  0
    8.4095   16.5086   17.7402 C   0  0  0  0  0  0  0  0  0  0  0  0
    8.6836   17.6520   16.8335 C   0  0  0  0  0  0  0  0  0  0  0  0
   10.0241   17.7876   17.4863 C   0  0  0  0  0  0  0  0  0  0  0  0
   10.6169   15.4575   18.5462 C   0  0  0  0  0  0  0  0  0  0  0  0
    9.1349   12.4274   23.5028 C   0  0  0  0  0  0  0  0  0  0  0  0
    8.1875   12.7651   24.4977 C   0  0  0  0  0  0  0  0  0  0  0  0
    7.6019   11.7757   25.3046 C   0  0  0  0  0  0  0  0  0  0  0  0
    6.3461   12.2573   26.6642 Br  0  0  0  0  0  0  0  0  0  0  0  0
    7.9603   10.4337   25.1290 C   0  0  0  0  0  0  0  0  0  0  0  0
    8.8760   10.0985   24.1307 C   0  0  0  0  0  0  0  0  0  0  0  0
    9.4392   11.0767   23.3339 C   0  0  0  0  0  0  0  0  0  0  0  0
   10.3220   10.5381   22.4595 O   0  0  0  0  0  0  0  0  0  0  0  0
   10.3916    9.1483   22.8322 C   0  0  0  0  0  0  0  0  0  0  0  0
    9.3635    8.8741   23.8042 O   0  0  0  0  0  0  0  0  0  0  0  0
  1  2  2  0
  2  3  1  0
  3  4  1  0
  4  5  1  0
  5  6  2  0
  6  7  1  0
  7  8  1  0
  8  9  1  0
  9 10  1  0
 10 11  1  0
  8 12  1  0
  2 13  1  0
 13 14  2  0
 14 15  1  0
 15 16  1  0
 15 17  2  0
 17 18  1  0
 18 19  2  0
 19 20  1  0
 20 21  1  0
 21 22  1  0
 12  5  1  0
 19 13  1  0
 11  8  1  0
 22 18  1  0
M  END
>  <cnnaffinity>  (11) 
-5.74602

>  <cnnaffinityIC50>  (11) 
1794.6509781976968 nanomolar

>  <smiles>  (11) 
O=C(NCC1=NOC2(CCC2)C1)C1=CC(Br)=CC2=C1OCO2 Z5339719725

>  <ref_pdb>  (11) 
Ax0310a

>  <ref_mols>  (11) 
Ax0351a

>  <rationale>  (11) 
Enamine real space elaborations around x0351.

>  <original SMILES>  (11) 
O=C(NCC1=NOC2(CCC2)C1)C1=CC(Br)=CC2=C1OCO2

$$$$
Z5264898266
     RDKit          3D

 23 25  0  0  0  0  0  0  0  0999 V2000
   14.4367   13.4314   24.4224 C   0  0  0  0  0  0  0  0  0  0  0  0
   13.3836   13.2647   23.3267 C   0  0  0  0  0  0  0  0  0  0  0  0
   12.7081   14.5867   22.9567 C   0  0  0  0  0  0  0  0  0  0  0  0
   11.5583   14.4591   21.9475 C   0  0  1  0  0  0  0  0  0  0  0  0
   10.5973   13.4344   22.3757 N   0  0  0  0  0  0  0  0  0  0  0  0
    9.8931   13.5582   23.5431 C   0  0  0  0  0  0  0  0  0  0  0  0
    9.7996   14.6016   24.1797 O   0  0  0  0  0  0  0  0  0  0  0  0
    9.1860   12.3465   24.0384 C   0  0  0  0  0  0  0  0  0  0  0  0
    8.1970   12.4890   25.0262 C   0  0  0  0  0  0  0  0  0  0  0  0
    7.5168   11.3875   25.5273 C   0  0  0  0  0  0  0  0  0  0  0  0
    7.8034   10.0894   25.0746 C   0  0  0  0  0  0  0  0  0  0  0  0
    8.7942    9.9684   24.1397 C   0  0  0  0  0  0  0  0  0  0  0  0
    9.4605   11.0630   23.6309 C   0  0  0  0  0  0  0  0  0  0  0  0
   10.4057   10.6178   22.7353 O   0  0  0  0  0  0  0  0  0  0  0  0
   10.2798    9.2425   22.6421 C   0  0  0  0  0  0  0  0  0  0  0  0
    9.9274    8.8849   21.3975 F   0  0  0  0  0  0  0  0  0  0  0  0
   11.4452    8.6410   22.8954 F   0  0  0  0  0  0  0  0  0  0  0  0
    9.3175    8.8363   23.5452 O   0  0  0  0  0  0  0  0  0  0  0  0
   10.8169   15.7774   21.7266 C   0  0  0  0  0  0  0  0  0  0  0  0
   10.2721   15.7058   20.3050 C   0  0  0  0  0  0  0  0  0  0  0  0
   11.3258   14.9569   19.6546 N   0  0  0  0  0  0  0  0  0  0  0  0
   12.0077   14.1346   20.5029 C   0  0  0  0  0  0  0  0  0  0  0  0
   12.8186   13.3081   20.1470 O   0  0  0  0  0  0  0  0  0  0  0  0
  1  2  1  0
  2  3  1  0
  4  3  1  1
  4  5  1  0
  5  6  1  0
  6  7  2  0
  6  8  1  0
  8  9  2  0
  9 10  1  0
 10 11  2  0
 11 12  1  0
 12 13  2  0
 13 14  1  0
 14 15  1  0
 15 16  1  0
 15 17  1  0
 15 18  1  0
  4 19  1  0
 19 20  1  0
 20 21  1  0
 21 22  1  0
 22 23  2  0
 22  4  1  0
 13  8  1  0
 18 12  1  0
M  END
>  <cnnaffinity>  (12) 
-5.74506

>  <cnnaffinityIC50>  (12) 
1798.6224090941696 nanomolar

>  <smiles>  (12) 
CCCC1(NC(=O)C2=CC=CC3=C2OC(F)(F)O3)CCNC1=O Z5264898266

>  <ref_pdb>  (12) 
Ax0310a

>  <ref_mols>  (12) 
Ax0351a

>  <rationale>  (12) 
Enamine real space elaborations around x0351.

>  <original SMILES>  (12) 
CCCC1(NC(=O)C2=CC=CC3=C2OC(F)(F)O3)CCNC1=O

$$$$
Z4303140447
     RDKit          3D

 23 26  0  0  0  0  0  0  0  0999 V2000
   11.0271   14.3580   25.0474 O   0  0  0  0  0  0  0  0  0  0  0  0
   10.4365   13.7002   24.2029 C   0  0  0  0  0  0  0  0  0  0  0  0
    9.4437   12.7073   24.6088 C   0  0  0  0  0  0  0  0  0  0  0  0
    9.5902   11.4124   24.1202 C   0  0  0  0  0  0  0  0  0  0  0  0
   10.5686   10.9874   23.2873 O   0  0  0  0  0  0  0  0  0  0  0  0
   10.3201    9.5804   23.1312 C   0  0  0  0  0  0  0  0  0  0  0  0
    9.0877    9.2515   23.8107 O   0  0  0  0  0  0  0  0  0  0  0  0
    8.7129   10.4021   24.4371 C   0  0  0  0  0  0  0  0  0  0  0  0
    7.6348   10.6656   25.2885 C   0  0  0  0  0  0  0  0  0  0  0  0
    7.4478   11.9752   25.7749 C   0  0  0  0  0  0  0  0  0  0  0  0
    8.3398   12.9994   25.4219 C   0  0  0  0  0  0  0  0  0  0  0  0
    8.0242   14.7914   26.0012 Br  0  0  0  0  0  0  0  0  0  0  0  0
   10.7492   13.8163   22.8547 N   0  0  0  0  0  0  0  0  0  0  0  0
    9.8781   13.2009   21.8740 C   0  0  0  0  0  0  0  0  0  0  0  0
    9.3998   14.2433   20.8593 C   0  0  0  0  0  0  0  0  0  0  0  0
   10.5225   15.1329   20.2876 C   0  0  0  0  0  0  0  0  0  0  0  0
    9.8599   16.2484   19.4908 C   0  0  0  0  0  0  0  0  0  0  0  0
   10.1169   16.5919   18.2526 N   0  0  0  0  0  0  0  0  0  0  0  0
    9.2230   17.5653   17.8563 N   0  0  0  0  0  0  0  0  0  0  0  0
    8.4241   17.8117   18.8634 C   0  0  0  0  0  0  0  0  0  0  0  0
    8.7994   17.0105   19.9096 N   0  0  0  0  0  0  0  0  0  0  0  0
   11.4574   15.6360   21.4241 C   0  0  0  0  0  0  0  0  0  0  0  0
   11.9269   14.5144   22.3507 C   0  0  0  0  0  0  0  0  0  0  0  0
  1  2  2  0
  2  3  1  0
  3  4  2  0
  4  5  1  0
  5  6  1  0
  6  7  1  0
  7  8  1  0
  8  9  2  0
  9 10  1  0
 10 11  2  0
 11 12  1  0
  2 13  1  0
 13 14  1  0
 14 15  1  0
 15 16  1  0
 16 17  1  0
 17 18  2  0
 18 19  1  0
 19 20  2  0
 20 21  1  0
 16 22  1  0
 22 23  1  0
 11  3  1  0
 23 13  1  0
  8  4  1  0
 21 17  1  0
M  END
>  <cnnaffinity>  (13) 
-5.72953

>  <cnnaffinityIC50>  (13) 
1864.103406103479 nanomolar

>  <smiles>  (13) 
O=C(C1=C2OCOC2=CC=C1Br)N1CCC(C2=NN=CN2)CC1 Z4303140447

>  <ref_pdb>  (13) 
Ax0310a

>  <ref_mols>  (13) 
Ax0351a

>  <rationale>  (13) 
Enamine real space elaborations around x0351.

>  <original SMILES>  (13) 
O=C(C1=C2OCOC2=CC=C1Br)N1CCC(C2=NN=CN2)CC1

$$$$
Z3368808819
     RDKit          3D

 23 27  0  0  0  0  0  0  0  0999 V2000
   17.8703   14.5909   25.2920 N   0  0  0  0  0  0  0  0  0  0  0  0
   16.8915   13.9744   25.2946 C   0  0  0  0  0  0  0  0  0  0  0  0
   15.7898   13.0443   25.3719 C   0  0  1  0  0  0  0  0  0  0  0  0
   14.3956   13.5325   25.1717 C   0  0  0  0  0  0  0  0  0  0  0  0
   13.4353   12.9658   24.4873 N   0  0  0  0  0  0  0  0  0  0  0  0
   12.4185   13.8891   24.5791 C   0  0  0  0  0  0  0  0  0  0  0  0
   11.0965   13.8332   23.8430 C   0  0  0  0  0  0  0  0  0  0  0  0
   10.0544   12.8123   24.2568 C   0  0  0  0  0  0  0  0  0  0  0  0
    8.9309   13.1731   25.0210 C   0  0  0  0  0  0  0  0  0  0  0  0
    7.9878   12.2369   25.4323 C   0  0  0  0  0  0  0  0  0  0  0  0
    8.0878   10.8868   25.0600 C   0  0  0  0  0  0  0  0  0  0  0  0
    9.1563   10.5550   24.2598 C   0  0  0  0  0  0  0  0  0  0  0  0
   10.0870   11.4964   23.8365 C   0  0  0  0  0  0  0  0  0  0  0  0
   10.9294   10.9102   22.9231 O   0  0  0  0  0  0  0  0  0  0  0  0
   10.7314    9.5163   23.1120 C   0  0  0  0  0  0  0  0  0  0  0  0
    9.4434    9.3400   23.6881 O   0  0  0  0  0  0  0  0  0  0  0  0
   12.7244   14.9415   25.2888 N   0  0  0  0  0  0  0  0  0  0  0  0
   14.0340   14.7042   25.6849 O   0  0  0  0  0  0  0  0  0  0  0  0
   16.0147   11.6289   24.8926 C   0  0  0  0  0  0  0  0  0  0  0  0
   16.1002   11.9155   26.3541 C   0  0  0  0  0  0  0  0  0  0  0  0
   15.2445   11.7664   27.5952 C   0  0  0  0  0  0  0  0  0  0  0  0
   16.5208   11.6628   28.4527 C   0  0  0  0  0  0  0  0  0  0  0  0
   17.3796   11.7228   27.1701 C   0  0  0  0  0  0  0  0  0  0  0  0
  1  2  3  0
  3  2  1  6
  3  4  1  0
  4  5  2  0
  5  6  1  0
  6  7  1  0
  7  8  1  0
  8  9  2  0
  9 10  1  0
 10 11  2  0
 11 12  1  0
 12 13  2  0
 13 14  1  0
 14 15  1  0
 15 16  1  0
  6 17  2  0
 17 18  1  0
  3 19  1  0
 19 20  1  0
 20 21  1  0
 21 22  1  0
 22 23  1  0
 20  3  1  0
 18  4  1  0
 23 20  1  0
 13  8  1  0
 16 12  1  0
M  END
>  <cnnaffinity>  (14) 
-5.72617

>  <cnnaffinityIC50>  (14) 
1878.5813219926533 nanomolar

>  <smiles>  (14) 
N#CC1(C2=NC(CC3=CC=CC4=C3OCO4)=NO2)CC12CCC2 Z3368808819

>  <ref_pdb>  (14) 
Ax0310a

>  <ref_mols>  (14) 
Ax0351a

>  <rationale>  (14) 
Enamine real space elaborations around x0351.

>  <original SMILES>  (14) 
N#CC1(C2=NC(CC3=CC=CC4=C3OCO4)=NO2)CC12CCC2

$$$$
Z3352011666
     RDKit          3D

 23 25  0  0  0  0  0  0  0  0999 V2000
   10.0296   16.1704   19.6371 C   0  0  0  0  0  0  0  0  0  0  0  0
   11.0382   15.3028   19.0572 N   0  0  0  0  0  0  0  0  0  0  0  0
   12.3446   14.7962   19.9248 S   0  0  0  0  0  6  0  0  0  0  0  0
   13.0864   15.9623   20.3691 O   0  0  0  0  0  0  0  0  0  0  0  0
   12.9341   13.7666   19.0950 O   0  0  0  0  0  0  0  0  0  0  0  0
   11.7477   13.9974   21.4024 C   0  0  0  0  0  0  0  0  0  0  0  0
   11.5929   14.9299   22.6144 C   0  0  2  0  0  0  0  0  0  0  0  0
   12.9142   15.2237   23.3379 C   0  0  0  0  0  0  0  0  0  0  0  0
   13.0660   14.0469   24.2998 C   0  0  0  0  0  0  0  0  0  0  0  0
   11.6294   13.7877   24.7613 C   0  0  0  0  0  0  0  0  0  0  0  0
   10.8166   14.2477   23.6425 N   0  0  0  0  0  0  0  0  0  0  0  0
    9.5064   13.9710   23.4213 C   0  0  0  0  0  0  0  0  0  0  0  0
    8.8483   14.5510   22.5705 O   0  0  0  0  0  0  0  0  0  0  0  0
    8.9276   12.8377   24.2386 C   0  0  0  0  0  0  0  0  0  0  0  0
    9.3412   11.5466   23.9739 C   0  0  0  0  0  0  0  0  0  0  0  0
   10.3511   11.1601   23.1383 O   0  0  0  0  0  0  0  0  0  0  0  0
   10.4321    9.7397   23.2566 C   0  0  0  0  0  0  0  0  0  0  0  0
    9.2958    9.2925   23.9874 O   0  0  0  0  0  0  0  0  0  0  0  0
    8.7232   10.4239   24.5036 C   0  0  0  0  0  0  0  0  0  0  0  0
    7.6879   10.5381   25.3998 C   0  0  0  0  0  0  0  0  0  0  0  0
    7.3003   11.8363   25.7630 C   0  0  0  0  0  0  0  0  0  0  0  0
    7.9111   12.9532   25.1957 C   0  0  0  0  0  0  0  0  0  0  0  0
    7.4168   14.5356   25.7242 Cl  0  0  0  0  0  0  0  0  0  0  0  0
  1  2  1  0
  2  3  1  0
  3  4  2  0
  3  5  2  0
  3  6  1  0
  7  6  1  6
  7  8  1  0
  8  9  1  0
  9 10  1  0
 10 11  1  0
 11 12  1  0
 12 13  2  0
 12 14  1  0
 14 15  2  0
 15 16  1  0
 16 17  1  0
 17 18  1  0
 18 19  1  0
 19 20  2  0
 20 21  1  0
 21 22  2  0
 22 23  1  0
 11  7  1  0
 22 14  1  0
 19 15  1  0
M  END
>  <cnnaffinity>  (15) 
-5.72323

>  <cnnaffinityIC50>  (15) 
1891.3417090636938 nanomolar

>  <smiles>  (15) 
CNS(=O)(=O)CC1CCCN1C(=O)C1=C2OCOC2=CC=C1Cl Z3352011666

>  <ref_pdb>  (15) 
Ax0310a

>  <ref_mols>  (15) 
Ax0351a

>  <rationale>  (15) 
Enamine real space elaborations around x0351.

>  <original SMILES>  (15) 
CNS(=O)(=O)CC1CCCN1C(=O)C1=C2OCOC2=CC=C1Cl

$$$$
Z5463574230
     RDKit          3D

 23 25  0  0  0  0  0  0  0  0999 V2000
   17.9500   11.2460   26.5210 C   0  0  0  0  0  0  0  0  0  0  0  0
   16.6068   11.9638   26.6819 C   0  0  0  0  0  0  0  0  0  0  0  0
   16.3392   12.1518   28.1761 C   0  0  0  0  0  0  0  0  0  0  0  0
   16.5566   13.3034   25.8978 C   0  0  2  0  0  0  0  0  0  0  0  0
   17.6448   14.1740   26.3402 N   0  0  0  0  0  0  0  0  0  0  0  0
   15.1761   13.9251   25.9255 C   0  0  0  0  0  0  0  0  0  0  0  0
   14.7027   14.8443   26.8079 C   0  0  0  0  0  0  0  0  0  0  0  0
   13.0933   15.3243   26.4034 S   0  0  0  0  0  0  0  0  0  0  0  0
   13.1527   14.1864   25.0895 C   0  0  0  0  0  0  0  0  0  0  0  0
   12.0305   13.9440   24.2988 N   0  0  0  0  0  0  0  0  0  0  0  0
   10.8132   14.5687   24.4825 C   0  0  0  0  0  0  0  0  0  0  0  0
   10.6327   15.4305   25.3215 O   0  0  0  0  0  0  0  0  0  0  0  0
    9.6987   14.0692   23.5727 C   0  0  0  0  0  0  0  0  0  0  0  0
    8.9833   12.8837   24.1834 C   0  0  0  0  0  0  0  0  0  0  0  0
    7.9322   13.0306   25.1036 C   0  0  0  0  0  0  0  0  0  0  0  0
    7.3076   11.9288   25.6830 C   0  0  0  0  0  0  0  0  0  0  0  0
    7.6968   10.6181   25.3605 C   0  0  0  0  0  0  0  0  0  0  0  0
    8.7232   10.4866   24.4534 C   0  0  0  0  0  0  0  0  0  0  0  0
    9.3531   11.5884   23.8915 C   0  0  0  0  0  0  0  0  0  0  0  0
   10.3071   11.1702   22.9988 O   0  0  0  0  0  0  0  0  0  0  0  0
   10.3619    9.7489   23.1285 C   0  0  0  0  0  0  0  0  0  0  0  0
    9.2532    9.3364   23.9211 O   0  0  0  0  0  0  0  0  0  0  0  0
   14.2644   13.5275   24.9594 N   0  0  0  0  0  0  0  0  0  0  0  0
  1  2  1  0
  2  3  1  0
  2  4  1  0
  4  5  1  1
  4  6  1  0
  6  7  2  0
  7  8  1  0
  8  9  1  0
  9 10  1  0
 10 11  1  0
 11 12  2  0
 11 13  1  0
 13 14  1  0
 14 15  2  0
 15 16  1  0
 16 17  2  0
 17 18  1  0
 18 19  2  0
 19 20  1  0
 20 21  1  0
 21 22  1  0
  9 23  2  0
 23  6  1  0
 19 14  1  0
 22 18  1  0
M  END
>  <cnnaffinity>  (16) 
-5.70976

>  <cnnaffinityIC50>  (16) 
1950.922421489939 nanomolar

>  <smiles>  (16) 
CC(C)[C@H](N)C1=CSC(NC(=O)CC2=CC=CC3=C2OCO3)=N1 Z5463574230

>  <ref_pdb>  (16) 
Ax0310a

>  <ref_mols>  (16) 
Ax0351a

>  <rationale>  (16) 
Enamine real space elaborations around x0351.

>  <original SMILES>  (16) 
CC(C)[C@H](N)C1=CSC(NC(=O)CC2=CC=CC3=C2OCO3)=N1

$$$$
Z4305125307
     RDKit          3D

 23 25  0  0  0  0  0  0  0  0999 V2000
   10.7777   17.4016   17.2369 N   0  0  0  0  0  0  0  0  0  0  0  0
   10.2171   16.6998   17.9735 C   0  0  0  0  0  0  0  0  0  0  0  0
    9.3778   15.9074   18.8625 C   0  0  0  0  0  0  0  0  0  0  0  0
    8.5126   16.8989   19.5217 C   0  0  0  0  0  0  0  0  0  0  0  0
    7.8043   17.6803   20.0122 N   0  0  0  0  0  0  0  0  0  0  0  0
   10.1364   15.0011   19.8780 C   0  0  0  0  0  0  0  0  0  0  0  0
   10.7673   15.7850   21.0247 C   0  0  0  0  0  0  0  0  0  0  0  0
   11.5129   14.9306   22.0366 C   0  0  0  0  0  0  0  0  0  0  0  0
   10.5200   14.0386   22.6235 N   0  0  0  0  0  0  0  0  0  0  0  0
   10.2973   13.9457   23.9942 C   0  0  0  0  0  0  0  0  0  0  0  0
   10.7889   14.7515   24.7742 O   0  0  0  0  0  0  0  0  0  0  0  0
    9.4215   12.8802   24.4795 C   0  0  0  0  0  0  0  0  0  0  0  0
    9.6463   11.5769   24.0250 C   0  0  0  0  0  0  0  0  0  0  0  0
   10.6649   11.1481   23.2372 O   0  0  0  0  0  0  0  0  0  0  0  0
   10.4250    9.7397   23.0541 C   0  0  0  0  0  0  0  0  0  0  0  0
    9.1992    9.3917   23.7324 O   0  0  0  0  0  0  0  0  0  0  0  0
    8.7834   10.5457   24.3228 C   0  0  0  0  0  0  0  0  0  0  0  0
    7.6469   10.7949   25.0986 C   0  0  0  0  0  0  0  0  0  0  0  0
    7.4135   12.0945   25.5866 C   0  0  0  0  0  0  0  0  0  0  0  0
    8.3047   13.1381   25.2907 C   0  0  0  0  0  0  0  0  0  0  0  0
    7.9569   14.9131   25.9247 Br  0  0  0  0  0  0  0  0  0  0  0  0
    9.6969   13.2509   21.7150 C   0  0  0  0  0  0  0  0  0  0  0  0
    9.1023   14.0992   20.5710 C   0  0  0  0  0  0  0  0  0  0  0  0
  1  2  3  0
  2  3  1  0
  3  4  1  0
  4  5  3  0
  3  6  1  0
  6  7  1  0
  7  8  1  0
  8  9  1  0
  9 10  1  0
 10 11  2  0
 10 12  1  0
 12 13  2  0
 13 14  1  0
 14 15  1  0
 15 16  1  0
 16 17  1  0
 17 18  2  0
 18 19  1  0
 19 20  2  0
 20 21  1  0
  9 22  1  0
 22 23  1  0
 23  6  1  0
 20 12  1  0
 17 13  1  0
M  END
>  <cnnaffinity>  (17) 
-5.70418

>  <cnnaffinityIC50>  (17) 
1976.1504245437357 nanomolar

>  <smiles>  (17) 
N#CC(C#N)C1CCN(C(=O)C2=C3OCOC3=CC=C2Br)CC1 Z4305125307

>  <ref_pdb>  (17) 
Ax0310a

>  <ref_mols>  (17) 
Ax0351a

>  <rationale>  (17) 
Enamine real space elaborations around x0351.

>  <original SMILES>  (17) 
N#CC(C#N)C1CCN(C(=O)C2=C3OCOC3=CC=C2Br)CC1

$$$$
Z3939196665
     RDKit          3D

 23 26  0  0  0  0  0  0  0  0999 V2000
   10.0743   17.3198   17.3393 O   0  0  0  0  0  0  0  0  0  0  0  0
   10.4418   16.5486   18.2120 C   0  0  0  0  0  0  0  0  0  0  0  0
   11.3154   15.5421   17.9179 N   0  0  0  0  0  0  0  0  0  0  0  0
   11.3917   14.6375   19.0438 C   0  0  0  0  0  0  0  0  0  0  0  0
   10.6525   15.4226   20.1469 C   0  0  0  0  0  0  0  0  0  0  0  0
    9.3635   14.7461   20.6541 C   0  0  0  0  0  0  0  0  0  0  0  0
    9.6435   13.6010   21.6214 C   0  0  0  0  0  0  0  0  0  0  0  0
   10.4957   14.0948   22.6819 N   0  0  0  0  0  0  0  0  0  0  0  0
   10.1441   13.9262   24.0198 C   0  0  0  0  0  0  0  0  0  0  0  0
   10.7346   14.5505   24.8923 O   0  0  0  0  0  0  0  0  0  0  0  0
    9.2191   12.8498   24.4124 C   0  0  0  0  0  0  0  0  0  0  0  0
    8.1078   13.0246   25.2717 C   0  0  0  0  0  0  0  0  0  0  0  0
    7.2950   11.9294   25.6153 C   0  0  0  0  0  0  0  0  0  0  0  0
    5.7709   12.1749   26.7493 Br  0  0  0  0  0  0  0  0  0  0  0  0
    7.5944   10.6522   25.1171 C   0  0  0  0  0  0  0  0  0  0  0  0
    8.7039   10.4784   24.2917 C   0  0  0  0  0  0  0  0  0  0  0  0
    9.4851   11.5594   23.9417 C   0  0  0  0  0  0  0  0  0  0  0  0
   10.5004   11.1650   23.1330 O   0  0  0  0  0  0  0  0  0  0  0  0
   10.3684    9.7326   23.0406 C   0  0  0  0  0  0  0  0  0  0  0  0
    9.1693    9.3305   23.7321 O   0  0  0  0  0  0  0  0  0  0  0  0
   11.8094   14.5778   22.2679 C   0  0  0  0  0  0  0  0  0  0  0  0
   11.6346   15.7495   21.3008 C   0  0  0  0  0  0  0  0  0  0  0  0
   10.1044   16.5884   19.5087 O   0  0  0  0  0  0  0  0  0  0  0  0
  1  2  2  0
  2  3  1  0
  3  4  1  0
  4  5  1  0
  5  6  1  0
  6  7  1  0
  7  8  1  0
  8  9  1  0
  9 10  2  0
  9 11  1  0
 11 12  2  0
 12 13  1  0
 13 14  1  0
 13 15  2  0
 15 16  1  0
 16 17  2  0
 17 18  1  0
 18 19  1  0
 19 20  1  0
  8 21  1  0
 21 22  1  0
  5 23  1  0
 23  2  1  0
 22  5  1  0
 17 11  1  0
 20 16  1  0
M  END
>  <cnnaffinity>  (18) 
-5.70352

>  <cnnaffinityIC50>  (18) 
1979.1558756425707 nanomolar

>  <smiles>  (18) 
O=C1NCC2(CCN(C(=O)C3=CC(Br)=CC4=C3OCO4)CC2)O1 Z3939196665

>  <ref_pdb>  (18) 
Ax0310a

>  <ref_mols>  (18) 
Ax0351a

>  <rationale>  (18) 
Enamine real space elaborations around x0351.

>  <original SMILES>  (18) 
O=C1NCC2(CCN(C(=O)C3=CC(Br)=CC4=C3OCO4)CC2)O1

$$$$
Z3363604494
     RDKit          3D

 23 26  0  0  0  0  0  0  0  0999 V2000
   11.1956   14.3114   24.8782 O   0  0  0  0  0  0  0  0  0  0  0  0
   10.5249   13.7547   24.0315 C   0  0  0  0  0  0  0  0  0  0  0  0
    9.4868   12.7121   24.3961 C   0  0  0  0  0  0  0  0  0  0  0  0
    9.6681   11.3954   24.0132 C   0  0  0  0  0  0  0  0  0  0  0  0
   10.6311   10.9054   23.1739 O   0  0  0  0  0  0  0  0  0  0  0  0
   10.5025    9.4890   23.2612 C   0  0  0  0  0  0  0  0  0  0  0  0
    9.2065    9.2052   23.7689 O   0  0  0  0  0  0  0  0  0  0  0  0
    8.7989   10.3732   24.3584 C   0  0  0  0  0  0  0  0  0  0  0  0
    7.6694   10.6139   25.1003 C   0  0  0  0  0  0  0  0  0  0  0  0
    7.4317   11.9409   25.4815 C   0  0  0  0  0  0  0  0  0  0  0  0
    8.3185   12.9586   25.1338 C   0  0  0  0  0  0  0  0  0  0  0  0
    7.9210   14.5814   25.6105 Cl  0  0  0  0  0  0  0  0  0  0  0  0
   10.6477   14.0076   22.6911 N   0  0  0  0  0  0  0  0  0  0  0  0
   11.8643   14.5805   22.1256 C   0  0  0  0  0  0  0  0  0  0  0  0
   11.5247   15.8050   21.2693 C   0  0  0  0  0  0  0  0  0  0  0  0
   10.4708   15.4926   20.1692 C   0  0  0  0  0  0  0  0  0  0  0  0
    9.8422   16.7259   19.4700 C   0  0  0  0  0  0  0  0  0  0  0  0
   10.2506   16.7121   17.9857 C   0  0  0  0  0  0  0  0  0  0  0  0
   11.1259   15.5641   17.9081 N   0  0  0  0  0  0  0  0  0  0  0  0
   11.2290   14.7987   19.0234 C   0  0  0  0  0  0  0  0  0  0  0  0
   11.8905   13.7789   19.0904 O   0  0  0  0  0  0  0  0  0  0  0  0
    9.3113   14.6875   20.7754 C   0  0  0  0  0  0  0  0  0  0  0  0
    9.7364   13.5423   21.6683 C   0  0  0  0  0  0  0  0  0  0  0  0
  1  2  2  0
  2  3  1  0
  3  4  2  0
  4  5  1  0
  5  6  1  0
  6  7  1  0
  7  8  1  0
  8  9  2  0
  9 10  1  0
 10 11  2  0
 11 12  1  0
  2 13  1  0
 13 14  1  0
 14 15  1  0
 15 16  1  0
 16 17  1  0
 17 18  1  0
 18 19  1  0
 19 20  1  0
 20 21  2  0
 16 22  1  0
 22 23  1  0
 11  3  1  0
 23 13  1  0
  8  4  1  0
 20 16  1  0
M  END
>  <cnnaffinity>  (19) 
-5.70287

>  <cnnaffinityIC50>  (19) 
1982.1202570852547 nanomolar

>  <smiles>  (19) 
O=C(C1=C2OCOC2=CC=C1Cl)N1CCC2(CCNC2=O)CC1 Z3363604494

>  <ref_pdb>  (19) 
Ax0310a

>  <ref_mols>  (19) 
Ax0351a

>  <rationale>  (19) 
Enamine real space elaborations around x0351.

>  <original SMILES>  (19) 
O=C(C1=C2OCOC2=CC=C1Cl)N1CCC2(CCNC2=O)CC1

$$$$
Z1240430611
     RDKit          3D

 22 25  0  0  0  0  0  0  0  0999 V2000
   10.6701   14.4901   24.9885 O   0  0  0  0  0  0  0  0  0  0  0  0
   10.1421   13.7934   24.1374 C   0  0  0  0  0  0  0  0  0  0  0  0
    9.2069   12.6571   24.5145 C   0  0  0  0  0  0  0  0  0  0  0  0
    8.1128   12.8414   25.3764 C   0  0  0  0  0  0  0  0  0  0  0  0
    7.2997   11.7745   25.7498 C   0  0  0  0  0  0  0  0  0  0  0  0
    7.5460   10.4666   25.3046 C   0  0  0  0  0  0  0  0  0  0  0  0
    8.6342   10.2944   24.4821 C   0  0  0  0  0  0  0  0  0  0  0  0
    9.4401   11.3546   24.0963 C   0  0  0  0  0  0  0  0  0  0  0  0
   10.4077   10.8973   23.2389 O   0  0  0  0  0  0  0  0  0  0  0  0
   10.3138    9.4745   23.2827 C   0  0  0  0  0  0  0  0  0  0  0  0
    9.0701    9.1402   23.8830 O   0  0  0  0  0  0  0  0  0  0  0  0
   10.3407   13.9945   22.7977 N   0  0  0  0  0  0  0  0  0  0  0  0
   11.5989   14.5247   22.2816 C   0  0  0  0  0  0  0  0  0  0  0  0
   11.3734   15.5842   21.1935 C   0  0  0  0  0  0  0  0  0  0  0  0
   10.3249   15.1624   20.1375 C   0  0  0  0  0  0  0  0  0  0  0  0
    9.8560   16.2754   19.2353 C   0  0  0  0  0  0  0  0  0  0  0  0
    8.9069   17.2686   19.4013 C   0  0  0  0  0  0  0  0  0  0  0  0
    8.8884   17.9610   18.1768 C   0  0  0  0  0  0  0  0  0  0  0  0
    9.7457   17.4532   17.3009 N   0  0  0  0  0  0  0  0  0  0  0  0
   10.3175   16.4382   17.9676 N   0  0  0  0  0  0  0  0  0  0  0  0
    9.0976   14.5234   20.7840 C   0  0  0  0  0  0  0  0  0  0  0  0
    9.5133   13.4369   21.7528 C   0  0  0  0  0  0  0  0  0  0  0  0
  1  2  2  0
  2  3  1  0
  3  4  2  0
  4  5  1  0
  5  6  2  0
  6  7  1  0
  7  8  2  0
  8  9  1  0
  9 10  1  0
 10 11  1  0
  2 12  1  0
 12 13  1  0
 13 14  1  0
 14 15  1  0
 15 16  1  0
 16 17  2  0
 17 18  1  0
 18 19  2  0
 19 20  1  0
 15 21  1  0
 21 22  1  0
  8  3  1  0
 22 12  1  0
 11  7  1  0
 20 16  1  0
M  END
>  <cnnaffinity>  (20) 
-5.69867

>  <cnnaffinityIC50>  (20) 
2001.3820483184213 nanomolar

>  <smiles>  (20) 
O=C(C1=CC=CC2=C1OCO2)N1CCC(C2=CC=NN2)CC1 Z1240430611

>  <ref_pdb>  (20) 
Ax0310a

>  <ref_mols>  (20) 
Ax0351a

>  <rationale>  (20) 
Enamine real space elaborations around x0351.

>  <original SMILES>  (20) 
O=C(C1=CC=CC2=C1OCO2)N1CCC(C2=CC=NN2)CC1

$$$$
Z5499340203
     RDKit          3D

 23 25  0  0  0  0  0  0  0  0999 V2000
    9.6995   16.8498   19.0909 C   0  0  0  0  0  0  0  0  0  0  0  0
    9.6029   15.3427   19.2628 C   0  0  0  0  0  0  0  0  0  0  0  0
   10.9611   14.8148   19.4400 N   0  0  0  0  0  0  0  0  0  0  0  0
   11.8800   14.6449   18.4320 C   0  0  0  0  0  0  0  0  0  0  0  0
   13.0550   14.4180   18.9512 N   0  0  0  0  0  0  0  0  0  0  0  0
   12.9384   14.4389   20.3123 N   0  0  0  0  0  0  0  0  0  0  0  0
   11.6861   14.6790   20.6141 C   0  0  0  0  0  0  0  0  0  0  0  0
   11.2022   14.8908   22.0413 C   0  0  0  0  0  0  0  0  0  0  0  0
   10.5025   13.7516   22.6699 N   0  0  0  0  0  0  0  0  0  0  0  0
    9.8481   13.8202   23.8928 C   0  0  0  0  0  0  0  0  0  0  0  0
    9.8784   14.8565   24.5389 O   0  0  0  0  0  0  0  0  0  0  0  0
    9.0666   12.6827   24.3722 C   0  0  0  0  0  0  0  0  0  0  0  0
    9.4146   11.4071   23.9376 C   0  0  0  0  0  0  0  0  0  0  0  0
   10.4374   11.0924   23.1089 O   0  0  0  0  0  0  0  0  0  0  0  0
   10.3539    9.6631   22.9625 C   0  0  0  0  0  0  0  0  0  0  0  0
   10.1306    9.3764   21.6534 F   0  0  0  0  0  0  0  0  0  0  0  0
   11.5106    9.0742   23.3603 F   0  0  0  0  0  0  0  0  0  0  0  0
    9.2603    9.1740   23.7694 O   0  0  0  0  0  0  0  0  0  0  0  0
    8.7259   10.2850   24.3381 C   0  0  0  0  0  0  0  0  0  0  0  0
    7.6474   10.4035   25.2127 C   0  0  0  0  0  0  0  0  0  0  0  0
    7.2807   11.6762   25.6764 C   0  0  0  0  0  0  0  0  0  0  0  0
    7.9750   12.8201   25.2534 C   0  0  0  0  0  0  0  0  0  0  0  0
    7.4217   14.5462   25.8772 Br  0  0  0  0  0  0  0  0  0  0  0  0
  1  2  1  0
  2  3  1  0
  3  4  1  0
  4  5  2  0
  5  6  1  0
  6  7  2  0
  7  8  1  0
  8  9  1  0
  9 10  1  0
 10 11  2  0
 10 12  1  0
 12 13  2  0
 13 14  1  0
 14 15  1  0
 15 16  1  0
 15 17  1  0
 15 18  1  0
 18 19  1  0
 19 20  2  0
 20 21  1  0
 21 22  2  0
 22 23  1  0
  7  3  1  0
 22 12  1  0
 19 13  1  0
M  END
>  <cnnaffinity>  (21) 
-5.69557

>  <cnnaffinityIC50>  (21) 
2015.7190489551044 nanomolar

>  <smiles>  (21) 
CCN1C=NN=C1CNC(=O)C1=C2OC(F)(F)OC2=CC=C1Br Z5499340203

>  <ref_pdb>  (21) 
Ax0310a

>  <ref_mols>  (21) 
Ax0351a

>  <rationale>  (21) 
Enamine real space elaborations around x0351.

>  <original SMILES>  (21) 
CCN1C=NN=C1CNC(=O)C1=C2OC(F)(F)OC2=CC=C1Br

$$$$

     RDKit          3D

 24 26  0  0  0  0  0  0  0  0999 V2000
    3.4711   14.3131   28.3072 F   0  0  0  0  0  0  0  0  0  0  0  0
    4.1653   13.2744   27.8119 C   0  0  0  0  0  0  0  0  0  0  0  0
    4.2784   13.1335   26.4379 C   0  0  0  0  0  0  0  0  0  0  0  0
    5.0241   12.0733   25.9400 C   0  0  0  0  0  0  0  0  0  0  0  0
    5.6501   11.1454   26.7795 C   0  0  0  0  0  0  0  0  0  0  0  0
    6.4099   10.1254   26.2023 N   0  0  0  0  0  0  0  0  0  0  0  0
    7.4382   10.3905   25.3015 C   0  0  0  0  0  0  0  0  0  0  0  0
    8.0444    9.3876   24.6656 N   0  0  0  0  0  0  0  0  0  0  0  0
    8.9608    9.9963   23.8908 N   0  0  0  0  0  0  0  0  0  0  0  0
    9.8359    9.2188   23.0362 C   0  0  0  0  0  0  0  0  0  0  0  0
   10.5119   10.1167   22.0034 C   0  0  0  0  0  0  0  0  0  0  0  0
   11.0860   11.3584   22.6762 C   0  0  0  0  0  0  0  0  0  0  0  0
    9.9738   12.1916   23.3115 C   0  0  0  0  0  0  0  0  0  0  0  0
    8.9904   11.3378   24.0582 C   0  0  0  0  0  0  0  0  0  0  0  0
    7.9930   11.6427   24.9559 C   0  0  0  0  0  0  0  0  0  0  0  0
    5.4807   11.2971   28.1632 C   0  0  0  0  0  0  0  0  0  0  0  0
    4.7652   12.3781   28.6787 C   0  0  0  0  0  0  0  0  0  0  0  0
    6.2117   10.2116   29.3518 S   0  0  0  0  0  6  0  0  0  0  0  0
    6.0809   10.8497   30.6518 O   0  0  0  0  0  0  0  0  0  0  0  0
    7.4759    9.7054   28.8378 O   0  0  0  0  0  0  0  0  0  0  0  0
    5.0602    8.7826   29.4535 C   0  0  0  0  0  0  0  0  0  0  0  0
    4.8553    8.2376   28.2556 F   0  0  0  0  0  0  0  0  0  0  0  0
    5.6069    7.8870   30.2613 F   0  0  0  0  0  0  0  0  0  0  0  0
    3.9031    9.1869   29.9626 F   0  0  0  0  0  0  0  0  0  0  0  0
  1  2  1  0
  2  3  2  0
  3  4  1  0
  4  5  2  0
  5  6  1  0
  6  7  1  0
  7  8  2  0
  8  9  1  0
  9 10  1  0
 10 11  1  0
 11 12  1  0
 12 13  1  0
 13 14  1  0
 14 15  2  0
  5 16  1  0
 16 17  2  0
 16 18  1  0
 18 19  2  0
 18 20  2  0
 18 21  1  0
 21 22  1  0
 21 23  1  0
 21 24  1  0
 17  2  1  0
 15  7  1  0
 14  9  1  0
M  END
>  <cnnaffinity>  (22) 
-5.92061

>  <cnnaffinityIC50>  (22) 
1200.5769471371716 nanomolar

>  <smiles>  (22) 
FC1=CC=C(NC2=NN3CCCCC3=C2)C(=C1)S(=O)(=O)C(F)(F)F

>  <ref_pdb>  (22) 
Ax0310a

>  <ref_mols>  (22) 
Ax0365a

>  <rationale>  (22) 
Enamine real space elaborations around x0365.

>  <original SMILES>  (22) 
FC1=CC=C(NC2=NN3CCCCC3=C2)C(=C1)S(=O)(=O)C(F)(F)F

$$$$

     RDKit          3D

 24 26  0  0  0  0  0  0  0  0999 V2000
    9.8635    9.1535   23.0641 C   0  0  0  0  0  0  0  0  0  0  0  0
    9.0623   10.0129   23.9028 N   0  0  0  0  0  0  0  0  0  0  0  0
    8.0484    9.4440   24.5869 N   0  0  0  0  0  0  0  0  0  0  0  0
    7.4433   10.4440   25.2188 C   0  0  0  0  0  0  0  0  0  0  0  0
    6.3316   10.1655   26.0005 N   0  0  0  0  0  0  0  0  0  0  0  0
    5.4396   11.0905   26.5151 C   0  0  0  0  0  0  0  0  0  0  0  0
    5.1857   12.3014   25.8564 C   0  0  0  0  0  0  0  0  0  0  0  0
    4.3808   13.2712   26.4329 C   0  0  0  0  0  0  0  0  0  0  0  0
    3.7623   13.0064   27.6504 C   0  0  0  0  0  0  0  0  0  0  0  0
    3.9406   11.7933   28.2973 C   0  0  0  0  0  0  0  0  0  0  0  0
    4.7650   10.8350   27.7230 C   0  0  0  0  0  0  0  0  0  0  0  0
    5.1452    9.2786   28.5254 S   0  0  0  0  0  6  0  0  0  0  0  0
    4.2188    9.2984   30.0387 C   0  0  0  0  0  0  0  0  0  0  0  0
    4.6242    8.2025   27.6824 O   0  0  0  0  0  0  0  0  0  0  0  0
    6.5574    9.2993   28.8803 O   0  0  0  0  0  0  0  0  0  0  0  0
    2.7240   14.2301   28.4095 S   0  0  0  0  0  6  0  0  0  0  0  0
    1.0866   13.8904   27.7461 C   0  0  0  0  0  0  0  0  0  0  0  0
    2.6942   13.9442   29.8420 O   0  0  0  0  0  0  0  0  0  0  0  0
    3.1371   15.5318   27.8947 O   0  0  0  0  0  0  0  0  0  0  0  0
    8.1089   11.6700   24.9736 C   0  0  0  0  0  0  0  0  0  0  0  0
    9.1296   11.3566   24.0925 C   0  0  0  0  0  0  0  0  0  0  0  0
   10.0906   12.2348   23.4053 C   0  0  0  0  0  0  0  0  0  0  0  0
    9.6610   13.6150   22.9768 C   0  0  0  0  0  0  0  0  0  0  0  0
   10.6284   13.4570   24.1021 C   0  0  0  0  0  0  0  0  0  0  0  0
  1  2  1  0
  2  3  1  0
  3  4  2  0
  4  5  1  0
  5  6  1  0
  6  7  2  0
  7  8  1  0
  8  9  2  0
  9 10  1  0
 10 11  2  0
 11 12  1  0
 12 13  1  0
 12 14  2  0
 12 15  2  0
  9 16  1  0
 16 17  1  0
 16 18  2  0
 16 19  2  0
  4 20  1  0
 20 21  2  0
 21 22  1  0
 22 23  1  0
 23 24  1  0
 21  2  1  0
 24 22  1  0
 11  6  1  0
M  END
>  <cnnaffinity>  (23) 
-5.90193

>  <cnnaffinityIC50>  (23) 
1253.3431737133744 nanomolar

>  <smiles>  (23) 
CN1N=C(NC2=CC=C(C=C2S(C)(=O)=O)S(C)(=O)=O)C=C1C1CC1

>  <ref_pdb>  (23) 
Ax0310a

>  <ref_mols>  (23) 
Ax0365a

>  <rationale>  (23) 
Enamine real space elaborations around x0365.

>  <original SMILES>  (23) 
CN1N=C(NC2=CC=C(C=C2S(C)(=O)=O)S(C)(=O)=O)C=C1C1CC1

$$$$

     RDKit          3D

 23 25  0  0  0  0  0  0  0  0999 V2000
    3.8681    9.1749   29.9313 F   0  0  0  0  0  0  0  0  0  0  0  0
    5.0418    8.7840   29.4496 C   0  0  0  0  0  0  0  0  0  0  0  0
    4.8604    8.2417   28.2472 F   0  0  0  0  0  0  0  0  0  0  0  0
    5.5791    7.8836   30.2592 F   0  0  0  0  0  0  0  0  0  0  0  0
    6.1907   10.2183   29.3742 S   0  0  0  0  0  6  0  0  0  0  0  0
    7.4577    9.7101   28.8661 O   0  0  0  0  0  0  0  0  0  0  0  0
    6.0614   10.8369   30.6841 O   0  0  0  0  0  0  0  0  0  0  0  0
    5.4736   11.3117   28.1833 C   0  0  0  0  0  0  0  0  0  0  0  0
    4.7474   12.3932   28.6777 C   0  0  0  0  0  0  0  0  0  0  0  0
    4.1468   13.3042   27.8181 C   0  0  0  0  0  0  0  0  0  0  0  0
    4.2823   13.1261   26.4450 C   0  0  0  0  0  0  0  0  0  0  0  0
    5.0315   12.0667   25.9544 C   0  0  0  0  0  0  0  0  0  0  0  0
    5.6649   11.1557   26.8047 C   0  0  0  0  0  0  0  0  0  0  0  0
    6.4385   10.1409   26.2456 N   0  0  0  0  0  0  0  0  0  0  0  0
    7.4475   10.4016   25.3233 C   0  0  0  0  0  0  0  0  0  0  0  0
    8.0495    9.3964   24.6890 N   0  0  0  0  0  0  0  0  0  0  0  0
    8.9559   10.0005   23.8993 N   0  0  0  0  0  0  0  0  0  0  0  0
    9.8310    9.2184   23.0477 C   0  0  0  0  0  0  0  0  0  0  0  0
   10.4997   10.1135   22.0056 C   0  0  0  0  0  0  0  0  0  0  0  0
   11.0811   11.3559   22.6748 C   0  0  0  0  0  0  0  0  0  0  0  0
    9.9707   12.1919   23.3103 C   0  0  0  0  0  0  0  0  0  0  0  0
    8.9841   11.3434   24.0560 C   0  0  0  0  0  0  0  0  0  0  0  0
    7.9936   11.6532   24.9610 C   0  0  0  0  0  0  0  0  0  0  0  0
  1  2  1  0
  2  3  1  0
  2  4  1  0
  2  5  1  0
  5  6  2  0
  5  7  2  0
  5  8  1  0
  8  9  2  0
  9 10  1  0
 10 11  2  0
 11 12  1  0
 12 13  2  0
 13 14  1  0
 14 15  1  0
 15 16  2  0
 16 17  1  0
 17 18  1  0
 18 19  1  0
 19 20  1  0
 20 21  1  0
 21 22  1  0
 22 23  2  0
 13  8  1  0
 23 15  1  0
 22 17  1  0
M  END
>  <cnnaffinity>  (24) 
-5.79907

>  <cnnaffinityIC50>  (24) 
1588.2907257469365 nanomolar

>  <smiles>  (24) 
FC(F)(F)S(=O)(=O)C1=CC=CC=C1NC1=NN2CCCCC2=C1

>  <ref_pdb>  (24) 
Ax0310a

>  <ref_mols>  (24) 
Ax0365a

>  <rationale>  (24) 
Enamine real space elaborations around x0365.

>  <original SMILES>  (24) 
FC(F)(F)S(=O)(=O)C1=CC=CC=C1NC1=NN2CCCCC2=C1

$$$$

     RDKit          3D

 24 25  0  0  0  0  0  0  0  0999 V2000
    9.7912   12.6022   23.2253 C   0  0  0  0  0  0  0  0  0  0  0  0
    8.8812   11.6768   23.9733 C   0  0  0  0  0  0  0  0  0  0  0  0
    7.9807   11.9523   24.9731 C   0  0  0  0  0  0  0  0  0  0  0  0
    7.5136   10.6922   25.4002 C   0  0  0  0  0  0  0  0  0  0  0  0
    6.6446   10.4366   26.4536 N   0  0  0  0  0  0  0  0  0  0  0  0
    5.6856   11.3637   26.8481 C   0  0  0  0  0  0  0  0  0  0  0  0
    5.0337   12.1974   25.9357 C   0  0  0  0  0  0  0  0  0  0  0  0
    4.1450   13.1740   26.3713 C   0  0  0  0  0  0  0  0  0  0  0  0
    3.8858   13.3473   27.7287 C   0  0  0  0  0  0  0  0  0  0  0  0
    4.4892   12.4989   28.6489 C   0  0  0  0  0  0  0  0  0  0  0  0
    5.3284   11.4834   28.2050 C   0  0  0  0  0  0  0  0  0  0  0  0
    6.0561   10.4363   29.4261 S   0  0  1  0  0  6  0  0  0  0  0  0
    7.3503    9.6348   28.7965 N   0  0  0  0  0  0  0  0  0  0  0  0
    6.1299   11.0745   30.7483 O   0  0  0  0  0  0  0  0  0  0  0  0
    4.9867    8.9426   29.4393 C   0  0  0  0  0  0  0  0  0  0  0  0
    5.4853    8.0771   30.3100 F   0  0  0  0  0  0  0  0  0  0  0  0
    3.7315    9.2278   29.7818 F   0  0  0  0  0  0  0  0  0  0  0  0
    4.9860    8.4016   28.2235 F   0  0  0  0  0  0  0  0  0  0  0  0
    8.0746    9.7024   24.7119 N   0  0  0  0  0  0  0  0  0  0  0  0
    8.8668   10.3245   23.8077 N   0  0  0  0  0  0  0  0  0  0  0  0
    9.5621    9.5482   22.8044 C   0  0  0  0  0  0  0  0  0  0  0  0
   11.0169    9.2436   23.1811 C   0  0  0  0  0  0  0  0  0  0  0  0
   11.3915    7.9494   23.0516 N   0  0  0  0  0  0  0  0  0  0  0  0
   11.7880   10.1148   23.5386 O   0  0  0  0  0  0  0  0  0  0  0  0
  1  2  1  0
  2  3  2  0
  3  4  1  0
  4  5  1  0
  5  6  1  0
  6  7  2  0
  7  8  1  0
  8  9  2  0
  9 10  1  0
 10 11  2  0
 11 12  1  0
 12 13  2  0
 12 14  2  0
 12 15  1  1
 15 16  1  0
 15 17  1  0
 15 18  1  0
  4 19  2  0
 19 20  1  0
 20 21  1  0
 21 22  1  0
 22 23  1  0
 22 24  2  0
 20  2  1  0
 11  6  1  0
M  END
>  <cnnaffinity>  (25) 
-5.79559

>  <cnnaffinityIC50>  (25) 
1601.068820214884 nanomolar

>  <smiles>  (25) 
CC1=CC(NC2=CC=CC=C2S(=N)(=O)C(F)(F)F)=NN1CC(N)=O

>  <ref_pdb>  (25) 
Ax0310a

>  <ref_mols>  (25) 
Ax0365a

>  <rationale>  (25) 
Enamine real space elaborations around x0365.

>  <original SMILES>  (25) 
CC1=CC(NC2=CC=CC=C2S(=N)(=O)C(F)(F)F)=NN1CC(N)=O

$$$$

     RDKit          3D

 24 26  0  0  0  0  0  0  0  0999 V2000
    4.4594   15.8589   28.8893 C   0  0  0  0  0  0  0  0  0  0  0  0
    3.2439   14.5844   28.5775 S   0  0  0  0  0  6  0  0  0  0  0  0
    2.7732   14.1101   29.8758 O   0  0  0  0  0  0  0  0  0  0  0  0
    2.3079   15.0874   27.5796 O   0  0  0  0  0  0  0  0  0  0  0  0
    4.1636   13.2567   27.8330 C   0  0  0  0  0  0  0  0  0  0  0  0
    4.2771   13.1483   26.4477 C   0  0  0  0  0  0  0  0  0  0  0  0
    5.0285   12.1054   25.9278 C   0  0  0  0  0  0  0  0  0  0  0  0
    5.6450   11.1457   26.7438 C   0  0  0  0  0  0  0  0  0  0  0  0
    6.3815   10.1232   26.1388 N   0  0  0  0  0  0  0  0  0  0  0  0
    7.4215   10.3891   25.2576 C   0  0  0  0  0  0  0  0  0  0  0  0
    8.0294    9.3900   24.6212 N   0  0  0  0  0  0  0  0  0  0  0  0
    8.9631   10.0017   23.8712 N   0  0  0  0  0  0  0  0  0  0  0  0
    9.8342    9.2175   23.0236 C   0  0  0  0  0  0  0  0  0  0  0  0
   10.5255   10.1198   22.0072 C   0  0  0  0  0  0  0  0  0  0  0  0
   11.0985   11.3623   22.6829 C   0  0  0  0  0  0  0  0  0  0  0  0
    9.9881   12.2020   23.3128 C   0  0  0  0  0  0  0  0  0  0  0  0
    8.9999   11.3434   24.0512 C   0  0  0  0  0  0  0  0  0  0  0  0
    7.9929   11.6416   24.9409 C   0  0  0  0  0  0  0  0  0  0  0  0
    5.4914   11.2711   28.1317 C   0  0  0  0  0  0  0  0  0  0  0  0
    4.7705   12.3306   28.6664 C   0  0  0  0  0  0  0  0  0  0  0  0
    6.2610   10.1738   29.3162 S   0  0  0  0  0  6  0  0  0  0  0  0
    5.2558    8.6908   29.2593 C   0  0  0  0  0  0  0  0  0  0  0  0
    7.6068    9.8460   28.8645 O   0  0  0  0  0  0  0  0  0  0  0  0
    6.0464   10.7684   30.6357 O   0  0  0  0  0  0  0  0  0  0  0  0
  1  2  1  0
  2  3  2  0
  2  4  2  0
  2  5  1  0
  5  6  2  0
  6  7  1  0
  7  8  2  0
  8  9  1  0
  9 10  1  0
 10 11  2  0
 11 12  1  0
 12 13  1  0
 13 14  1  0
 14 15  1  0
 15 16  1  0
 16 17  1  0
 17 18  2  0
  8 19  1  0
 19 20  2  0
 19 21  1  0
 21 22  1  0
 21 23  2  0
 21 24  2  0
 20  5  1  0
 18 10  1  0
 17 12  1  0
M  END
>  <cnnaffinity>  (26) 
-5.74363

>  <cnnaffinityIC50>  (26) 
1804.554488043311 nanomolar

>  <smiles>  (26) 
CS(=O)(=O)C1=CC=C(NC2=NN3CCCCC3=C2)C(=C1)S(C)(=O)=O

>  <ref_pdb>  (26) 
Ax0310a

>  <ref_mols>  (26) 
Ax0365a

>  <rationale>  (26) 
Enamine real space elaborations around x0365.

>  <original SMILES>  (26) 
CS(=O)(=O)C1=CC=C(NC2=NN3CCCCC3=C2)C(=C1)S(C)(=O)=O

$$$$
Z5026145719
     RDKit          3D

 23 25  0  0  0  0  0  0  0  0999 V2000
   10.8187    8.1574   23.2617 N   0  0  0  0  0  0  0  0  0  0  0  0
   10.3346    9.2738   22.6370 C   0  0  0  0  0  0  0  0  0  0  0  0
   10.6403    9.3866   21.4620 O   0  0  0  0  0  0  0  0  0  0  0  0
    9.6025   10.3199   23.3713 C   0  0  0  0  0  0  0  0  0  0  0  0
    8.8923   10.0215   24.5484 C   0  0  0  0  0  0  0  0  0  0  0  0
    8.2076   11.0169   25.2497 C   0  0  0  0  0  0  0  0  0  0  0  0
    7.1455   10.5433   26.7659 Br  0  0  0  0  0  0  0  0  0  0  0  0
    8.2755   12.3439   24.8125 C   0  0  0  0  0  0  0  0  0  0  0  0
    8.9712   12.6730   23.6468 C   0  0  0  0  0  0  0  0  0  0  0  0
    8.9795   13.9739   23.2099 O   0  0  0  0  0  0  0  0  0  0  0  0
   10.2585   14.6556   23.0714 C   0  0  1  0  0  0  0  0  0  0  0  0
   11.5395   13.7848   23.1075 C   0  0  0  0  0  0  0  0  0  0  0  0
   12.5012   14.3594   22.0597 C   0  0  0  0  0  0  0  0  0  0  0  0
   11.6691   15.1495   21.1693 N   0  0  0  0  0  0  0  0  0  0  0  0
   12.2479   16.1643   20.3019 C   0  0  0  0  0  0  0  0  0  0  0  0
   12.8759   15.5938   19.0254 C   0  0  0  0  0  0  0  0  0  0  0  0
   14.0522   16.4429   18.4723 C   0  0  0  0  0  0  0  0  0  0  0  0
   14.0017   17.9289   18.7942 C   0  0  0  0  0  0  0  0  0  0  0  0
   13.4927   18.2377   20.1957 C   0  0  0  0  0  0  0  0  0  0  0  0
   13.2169   17.0351   21.0751 C   0  0  0  0  0  0  0  0  0  0  0  0
   10.4336   15.3922   21.7417 C   0  0  0  0  0  0  0  0  0  0  0  0
    9.6531   16.2269   21.2840 O   0  0  0  0  0  0  0  0  0  0  0  0
    9.5906   11.6521   22.9138 C   0  0  0  0  0  0  0  0  0  0  0  0
  1  2  1  0
  2  3  2  0
  2  4  1  0
  4  5  2  0
  5  6  1  0
  6  7  1  0
  6  8  2  0
  8  9  1  0
  9 10  1  0
 11 10  1  6
 11 12  1  0
 12 13  1  0
 13 14  1  0
 14 15  1  0
 15 16  1  0
 16 17  1  0
 17 18  1  0
 18 19  1  0
 19 20  1  0
 14 21  1  0
 21 22  2  0
  9 23  2  0
 23  4  1  0
 21 11  1  0
 20 15  1  0
M  END
>  <cnnaffinity>  (27) 
-5.9284

>  <cnnaffinityIC50>  (27) 
1179.2340206530025 nanomolar

>  <smiles>  (27) 
NC(=O)C1=CC(Br)=CC(OC2CCN(C3CCCCC3)C2=O)=C1 Z5026145719

>  <ref_pdb>  (27) 
Ax0528a

>  <ref_mols>  (27) 
Ax0528a,Ax0556a

>  <rationale>  (27) 
Enamine real space elaborations around a merge of x0528 and x0556.

>  <original SMILES>  (27) 
NC(=O)C1=CC(Br)=CC(OC2CCN(C3CCCCC3)C2=O)=C1

$$$$
Z2721901805
     RDKit          3D

 23 25  0  0  0  0  0  0  0  0999 V2000
   10.7349    7.9265   23.3149 N   0  0  0  0  0  0  0  0  0  0  0  0
   10.2383    9.0435   22.7057 C   0  0  0  0  0  0  0  0  0  0  0  0
   10.5011    9.1661   21.5161 O   0  0  0  0  0  0  0  0  0  0  0  0
    9.5839   10.1193   23.4604 C   0  0  0  0  0  0  0  0  0  0  0  0
    8.8683    9.9240   24.6539 C   0  0  0  0  0  0  0  0  0  0  0  0
    8.2938   11.0173   25.3170 C   0  0  0  0  0  0  0  0  0  0  0  0
    8.4154   12.3178   24.7986 C   0  0  0  0  0  0  0  0  0  0  0  0
    7.6069   13.7777   25.7346 Br  0  0  0  0  0  0  0  0  0  0  0  0
    9.1396   12.5311   23.6137 C   0  0  0  0  0  0  0  0  0  0  0  0
    9.3194   13.7908   23.0752 O   0  0  0  0  0  0  0  0  0  0  0  0
   10.3539   13.8510   22.0604 C   0  0  2  0  0  0  0  0  0  0  0  0
   11.7290   13.5813   22.6980 C   0  0  0  0  0  0  0  0  0  0  0  0
   12.7321   14.4580   21.9465 C   0  0  0  0  0  0  0  0  0  0  0  0
   11.9152   15.4522   21.2635 N   0  0  0  0  0  0  0  0  0  0  0  0
   12.4644   16.4043   20.3137 C   0  0  0  0  0  0  0  0  0  0  0  0
   12.9595   15.6980   19.0302 C   0  0  0  0  0  0  0  0  0  0  0  0
   14.1666   16.4413   18.4101 C   0  0  0  0  0  0  0  0  0  0  0  0
   14.0292   17.9326   18.5893 C   0  0  0  0  0  0  0  0  0  0  0  0
   14.1967   18.2397   20.0682 C   0  0  0  0  0  0  0  0  0  0  0  0
   13.5761   17.1882   21.0026 C   0  0  0  0  0  0  0  0  0  0  0  0
   10.5679   15.1646   21.3225 C   0  0  0  0  0  0  0  0  0  0  0  0
    9.7297   15.7565   20.6479 O   0  0  0  0  0  0  0  0  0  0  0  0
    9.7031   11.4208   22.9760 C   0  0  0  0  0  0  0  0  0  0  0  0
  1  2  1  0
  2  3  2  0
  2  4  1  0
  4  5  2  0
  5  6  1  0
  6  7  2  0
  7  8  1  0
  7  9  1  0
  9 10  1  0
 11 10  1  1
 11 12  1  0
 12 13  1  0
 13 14  1  0
 14 15  1  0
 15 16  1  0
 16 17  1  0
 17 18  1  0
 18 19  1  0
 19 20  1  0
 14 21  1  0
 21 22  2  0
  9 23  2  0
 23  4  1  0
 21 11  1  0
 20 15  1  0
M  END
>  <cnnaffinity>  (28) 
-5.92659

>  <cnnaffinityIC50>  (28) 
1184.158945162197 nanomolar

>  <smiles>  (28) 
NC(=O)C1=CC=C(Br)C(OC2CCN(C3CCCCC3)C2=O)=C1 Z2721901805

>  <ref_pdb>  (28) 
Ax0528a

>  <ref_mols>  (28) 
Ax0528a,Ax0556a

>  <rationale>  (28) 
Enamine real space elaborations around a merge of x0528 and x0556.

>  <original SMILES>  (28) 
NC(=O)C1=CC=C(Br)C(OC2CCN(C3CCCCC3)C2=O)=C1

$$$$
Z2748966443
     RDKit          3D

 27 29  0  0  0  0  0  0  0  0999 V2000
    3.2195    7.4628   25.8115 C   0  0  0  0  0  0  0  0  0  0  0  0
    4.4952    8.1109   25.8982 O   0  0  0  0  0  0  0  0  0  0  0  0
    4.9043    8.5273   27.1464 C   0  0  0  0  0  0  0  0  0  0  0  0
    4.4425    7.9409   28.3412 C   0  0  0  0  0  0  0  0  0  0  0  0
    3.2509    6.4391   28.3182 Br  0  0  0  0  0  0  0  0  0  0  0  0
    4.8680    8.4443   29.5734 C   0  0  0  0  0  0  0  0  0  0  0  0
    5.7556    9.5205   29.6429 C   0  0  0  0  0  0  0  0  0  0  0  0
    6.2995   10.2054   31.3425 Br  0  0  0  0  0  0  0  0  0  0  0  0
    6.2363   10.0865   28.4609 C   0  0  0  0  0  0  0  0  0  0  0  0
    5.8208    9.5932   27.2122 C   0  0  0  0  0  0  0  0  0  0  0  0
    6.3075   10.2147   25.9287 C   0  0  0  0  0  0  0  0  0  0  0  0
    7.7729   10.2100   25.8280 N   0  0  0  0  0  0  0  0  0  0  0  0
    8.3631   11.2192   25.0676 C   0  0  0  0  0  0  0  0  0  0  0  0
    8.0008   12.5513   25.2964 C   0  0  0  0  0  0  0  0  0  0  0  0
    8.4738   13.5775   24.4638 C   0  0  0  0  0  0  0  0  0  0  0  0
    9.3054   13.2773   23.3821 C   0  0  0  0  0  0  0  0  0  0  0  0
    9.6780   14.2388   22.4807 O   0  0  0  0  0  0  0  0  0  0  0  0
   10.7297   15.1296   22.9110 C   0  0  1  0  0  0  0  0  0  0  0  0
   12.0778   14.4010   23.0668 C   0  0  0  0  0  0  0  0  0  0  0  0
   13.1633   15.3574   22.5515 C   0  0  0  0  0  0  0  0  0  0  0  0
   12.4504   16.3448   21.7570 N   0  0  0  0  0  0  0  0  0  0  0  0
   13.0800   17.0706   20.6603 C   0  0  0  0  0  0  0  0  0  0  0  0
   11.0799   16.2050   21.8766 C   0  0  0  0  0  0  0  0  0  0  0  0
   10.2993   16.8189   21.1492 O   0  0  0  0  0  0  0  0  0  0  0  0
    9.6968   11.9541   23.1766 C   0  0  0  0  0  0  0  0  0  0  0  0
    9.2609   10.9213   24.0224 C   0  0  0  0  0  0  0  0  0  0  0  0
    9.7308    9.5200   23.7394 C   0  0  0  0  0  0  0  0  0  0  0  0
  1  2  1  0
  2  3  1  0
  3  4  2  0
  4  5  1  0
  4  6  1  0
  6  7  2  0
  7  8  1  0
  7  9  1  0
  9 10  2  0
 10 11  1  0
 11 12  1  0
 12 13  1  0
 13 14  2  0
 14 15  1  0
 15 16  2  0
 16 17  1  0
 18 17  1  6
 18 19  1  0
 19 20  1  0
 20 21  1  0
 21 22  1  0
 21 23  1  0
 23 24  2  0
 16 25  1  0
 25 26  2  0
 26 27  1  0
 10  3  1  0
 26 13  1  0
 23 18  1  0
M  END
>  <cnnaffinity>  (29) 
-5.84683

>  <cnnaffinityIC50>  (29) 
1422.8856517257375 nanomolar

>  <smiles>  (29) 
COC1=C(Br)C=C(Br)C=C1CNC1=CC=C(OC2CCN(C)C2=O)C=C1C Z2748966443

>  <ref_pdb>  (29) 
Ax0528a

>  <ref_mols>  (29) 
Ax0528a,Ax0556a

>  <rationale>  (29) 
Enamine real space elaborations around a merge of x0528 and x0556.

>  <original SMILES>  (29) 
COC1=C(Br)C=C(Br)C=C1CNC1=CC=C(OC2CCN(C)C2=O)C=C1C

$$$$
PV-006487124897
     RDKit          3D

 25 26  0  0  0  0  0  0  0  0999 V2000
   10.0311    9.9137   23.6383 C   0  0  0  0  0  0  0  0  0  0  0  0
    9.6288   11.3112   24.0241 C   0  0  0  0  0  0  0  0  0  0  0  0
    8.7607   11.6284   25.0706 C   0  0  0  0  0  0  0  0  0  0  0  0
    7.9446   10.3702   25.9516 Cl  0  0  0  0  0  0  0  0  0  0  0  0
    8.4921   12.9436   25.4378 C   0  0  0  0  0  0  0  0  0  0  0  0
    9.0366   13.9788   24.7035 C   0  0  0  0  0  0  0  0  0  0  0  0
    8.7712   15.2502   25.0455 F   0  0  0  0  0  0  0  0  0  0  0  0
    9.8282   13.7385   23.5815 C   0  0  0  0  0  0  0  0  0  0  0  0
   10.1406   14.7087   22.6825 O   0  0  0  0  0  0  0  0  0  0  0  0
   11.1466   15.6686   22.9804 C   0  0  1  0  0  0  0  0  0  0  0  0
   12.5977   15.1485   23.1082 C   0  0  0  0  0  0  0  0  0  0  0  0
   13.4629   16.1125   22.2642 C   0  0  0  0  0  0  0  0  0  0  0  0
   12.5086   16.9397   21.5428 N   0  0  0  0  0  0  0  0  0  0  0  0
   12.8774   17.5822   20.3060 C   0  0  0  0  0  0  0  0  0  0  0  0
   12.9682   16.5802   19.1496 C   0  0  0  0  0  0  0  0  0  0  0  0
   12.8817   15.3932   19.3177 O   0  0  0  0  0  0  0  0  0  0  0  0
   13.0572   17.0925   17.9035 O   0  0  0  0  0  0  0  0  0  0  0  0
   13.9169   18.1901   17.4681 C   0  0  0  0  0  0  0  0  0  0  0  0
   15.3017   18.1378   18.1072 C   0  0  0  0  0  0  0  0  0  0  0  0
   14.0535   17.9428   15.9708 C   0  0  0  0  0  0  0  0  0  0  0  0
   13.2008   19.5059   17.7257 C   0  0  0  0  0  0  0  0  0  0  0  0
   11.1995   16.6123   21.7712 C   0  0  0  0  0  0  0  0  0  0  0  0
   10.2648   17.0073   21.1075 O   0  0  0  0  0  0  0  0  0  0  0  0
   10.1353   12.4048   23.3109 C   0  0  0  0  0  0  0  0  0  0  0  0
   11.2033   12.1055   21.9882 Cl  0  0  0  0  0  0  0  0  0  0  0  0
  1  2  1  0
  2  3  2  0
  3  4  1  0
  3  5  1  0
  5  6  2  0
  6  7  1  0
  6  8  1  0
  8  9  1  0
 10  9  1  6
 10 11  1  0
 11 12  1  0
 12 13  1  0
 13 14  1  0
 14 15  1  0
 15 16  2  0
 15 17  1  0
 17 18  1  0
 18 19  1  0
 18 20  1  0
 18 21  1  0
 13 22  1  0
 22 23  2  0
  8 24  2  0
 24 25  1  0
 24  2  1  0
 22 10  1  0
M  END
>  <cnnaffinity>  (30) 
-5.8398

>  <cnnaffinityIC50>  (30) 
1446.105573654733 nanomolar

>  <smiles>  (30) 
CC1=C(Cl)C=C(F)C(OC2CCN(CC(=O)OC(C)(C)C)C2=O)=C1Cl PV-006487124897

>  <ref_pdb>  (30) 
Ax0528a

>  <ref_mols>  (30) 
Ax0528a,Ax0556a

>  <rationale>  (30) 
Enamine real space elaborations around a merge of x0528 and x0556.

>  <original SMILES>  (30) 
CC1=C(Cl)C=C(F)C(OC2CCN(CC(=O)OC(C)(C)C)C2=O)=C1Cl

$$$$
Z3514530609
     RDKit          3D

 23 24  0  0  0  0  0  0  0  0999 V2000
   12.5580   15.3268   19.0435 C   0  0  0  0  0  0  0  0  0  0  0  0
   13.1907   16.3426   19.6168 C   0  0  0  0  0  0  0  0  0  0  0  0
   12.7759   17.0314   20.9023 C   0  0  0  0  0  0  0  0  0  0  0  0
   12.2134   16.1651   21.9106 N   0  0  0  0  0  0  0  0  0  0  0  0
   13.0296   15.3029   22.7434 C   0  0  0  0  0  0  0  0  0  0  0  0
   12.0514   14.2031   23.1850 C   0  0  0  0  0  0  0  0  0  0  0  0
   10.6681   14.8902   23.1300 C   0  0  2  0  0  0  0  0  0  0  0  0
    9.5433   14.1086   22.7343 O   0  0  0  0  0  0  0  0  0  0  0  0
    9.3451   12.9037   23.3694 C   0  0  0  0  0  0  0  0  0  0  0  0
    8.4840   12.7972   24.4658 C   0  0  0  0  0  0  0  0  0  0  0  0
    8.2733   11.5453   25.0505 C   0  0  0  0  0  0  0  0  0  0  0  0
    7.2366   11.4124   26.1335 C   0  0  0  0  0  0  0  0  0  0  0  0
    7.3099   12.4205   27.0216 F   0  0  0  0  0  0  0  0  0  0  0  0
    7.3593   10.2658   26.8191 F   0  0  0  0  0  0  0  0  0  0  0  0
    5.9854   11.4316   25.6301 F   0  0  0  0  0  0  0  0  0  0  0  0
    8.9397   10.4135   24.5900 C   0  0  0  0  0  0  0  0  0  0  0  0
    9.7340   10.5466   23.4643 C   0  0  0  0  0  0  0  0  0  0  0  0
   10.3665    9.3681   22.8641 N   0  0  0  0  0  4  0  0  0  0  0  0
   10.4554    8.3587   23.5399 O   0  0  0  0  0  0  0  0  0  0  0  0
   10.7468    9.4723   21.7105 O   0  0  0  0  0  1  0  0  0  0  0  0
    9.9375   11.7633   22.8378 C   0  0  0  0  0  0  0  0  0  0  0  0
   10.8706   15.9940   22.0790 C   0  0  0  0  0  0  0  0  0  0  0  0
   10.0110   16.6120   21.4821 O   0  0  0  0  0  0  0  0  0  0  0  0
  1  2  2  0
  2  3  1  0
  3  4  1  0
  4  5  1  0
  5  6  1  0
  6  7  1  0
  7  8  1  6
  8  9  1  0
  9 10  2  0
 10 11  1  0
 11 12  1  0
 12 13  1  0
 12 14  1  0
 12 15  1  0
 11 16  2  0
 16 17  1  0
 17 18  1  0
 18 19  2  0
 18 20  1  0
 17 21  2  0
  7 22  1  0
 22 23  2  0
 22  4  1  0
 21  9  1  0
M  CHG  2  18   1  20  -1
M  END
>  <cnnaffinity>  (31) 
-5.81329

>  <cnnaffinityIC50>  (31) 
1537.1278808861305 nanomolar

>  <smiles>  (31) 
C=CCN1CCC(OC2=CC(C(F)(F)F)=CC([N+](=O)[O-])=C2)C1=O Z3514530609

>  <ref_pdb>  (31) 
Ax0528a

>  <ref_mols>  (31) 
Ax0528a,Ax0556a

>  <rationale>  (31) 
Enamine real space elaborations around a merge of x0528 and x0556.

>  <original SMILES>  (31) 
C=CCN1CCC(OC2=CC(C(F)(F)F)=CC([N+](=O)[O-])=C2)C1=O

$$$$
Z2589058935
     RDKit          3D

 27 29  0  0  0  0  0  0  0  0999 V2000
    6.6279   11.4478   25.2521 C   0  0  0  0  0  0  0  0  0  0  0  0
    7.6300   12.4013   24.6555 C   0  0  0  0  0  0  0  0  0  0  0  0
    7.5064   13.7639   24.9256 C   0  0  0  0  0  0  0  0  0  0  0  0
    8.4220   14.6904   24.4505 C   0  0  0  0  0  0  0  0  0  0  0  0
    9.5175   14.3064   23.6850 C   0  0  0  0  0  0  0  0  0  0  0  0
   10.3231   15.3461   23.3305 O   0  0  0  0  0  0  0  0  0  0  0  0
   11.2911   15.2948   22.3057 C   0  0  2  0  0  0  0  0  0  0  0  0
   12.7062   15.4065   22.8808 C   0  0  0  0  0  0  0  0  0  0  0  0
   13.4422   16.4499   22.0219 C   0  0  0  0  0  0  0  0  0  0  0  0
   12.3795   17.1317   21.2930 N   0  0  0  0  0  0  0  0  0  0  0  0
   12.6723   17.7792   20.0382 C   0  0  0  0  0  0  0  0  0  0  0  0
   12.9647   16.7527   18.9436 C   0  0  0  0  0  0  0  0  0  0  0  0
   12.9571   15.5673   19.1395 O   0  0  0  0  0  0  0  0  0  0  0  0
   13.1269   17.2522   17.7036 O   0  0  0  0  0  0  0  0  0  0  0  0
   13.9994   18.3664   17.3549 C   0  0  0  0  0  0  0  0  0  0  0  0
   13.2678   19.6813   17.5834 C   0  0  0  0  0  0  0  0  0  0  0  0
   14.1970   18.1527   15.8632 C   0  0  0  0  0  0  0  0  0  0  0  0
   15.3564   18.2773   18.0523 C   0  0  0  0  0  0  0  0  0  0  0  0
   11.1487   16.5313   21.4172 C   0  0  0  0  0  0  0  0  0  0  0  0
   10.1543   16.8813   20.8186 O   0  0  0  0  0  0  0  0  0  0  0  0
    9.6814   12.9324   23.4281 C   0  0  0  0  0  0  0  0  0  0  0  0
    8.7103   12.0154   23.8615 C   0  0  0  0  0  0  0  0  0  0  0  0
    9.0742   10.5899   23.4975 C   0  0  2  0  0  0  0  0  0  0  0  0
    9.4310    9.7664   24.7252 C   0  0  0  0  0  0  0  0  0  0  0  0
   10.3001   10.7409   22.5853 C   0  0  0  0  0  0  0  0  0  0  0  0
   10.7896   12.1638   22.7958 C   0  0  0  0  0  0  0  0  0  0  0  0
   11.8986   12.5509   22.5077 O   0  0  0  0  0  0  0  0  0  0  0  0
  1  2  1  0
  2  3  2  0
  3  4  1  0
  4  5  2  0
  5  6  1  0
  7  6  1  1
  7  8  1  0
  8  9  1  0
  9 10  1  0
 10 11  1  0
 11 12  1  0
 12 13  2  0
 12 14  1  0
 14 15  1  0
 15 16  1  0
 15 17  1  0
 15 18  1  0
 10 19  1  0
 19 20  2  0
  5 21  1  0
 21 22  2  0
 22 23  1  0
 23 24  1  1
 23 25  1  0
 25 26  1  0
 26 27  2  0
 22  2  1  0
 19  7  1  0
 26 21  1  0
M  END
>  <cnnaffinity>  (32) 
-5.74658

>  <cnnaffinityIC50>  (32) 
1792.33836102738 nanomolar

>  <smiles>  (32) 
CC1=CC=C(OC2CCN(CC(=O)OC(C)(C)C)C2=O)C2=C1C(C)CC2=O Z2589058935

>  <ref_pdb>  (32) 
Ax0528a

>  <ref_mols>  (32) 
Ax0528a,Ax0556a

>  <rationale>  (32) 
Enamine real space elaborations around a merge of x0528 and x0556.

>  <original SMILES>  (32) 
CC1=CC=C(OC2CCN(CC(=O)OC(C)(C)C)C2=O)C2=C1C(C)CC2=O

$$$$
Z5026145405
     RDKit          3D

 23 25  0  0  0  0  0  0  0  0999 V2000
   10.4381    9.3447   21.6426 N   0  0  0  0  0  0  0  0  0  0  0  0
   10.6742    9.6686   22.9486 C   0  0  0  0  0  0  0  0  0  0  0  0
   11.6805    9.2015   23.4530 O   0  0  0  0  0  0  0  0  0  0  0  0
    9.8456   10.6803   23.6018 C   0  0  0  0  0  0  0  0  0  0  0  0
    8.9188   10.3507   24.6088 C   0  0  0  0  0  0  0  0  0  0  0  0
    8.1266   11.3390   25.1948 C   0  0  0  0  0  0  0  0  0  0  0  0
    6.8717   10.8659   26.5551 Br  0  0  0  0  0  0  0  0  0  0  0  0
    8.2694   12.6661   24.7829 C   0  0  0  0  0  0  0  0  0  0  0  0
    9.2004   13.0261   23.8039 C   0  0  0  0  0  0  0  0  0  0  0  0
    9.2953   14.3517   23.4682 O   0  0  0  0  0  0  0  0  0  0  0  0
   10.5437   14.9174   22.9870 C   0  0  1  0  0  0  0  0  0  0  0  0
   11.8789   14.2727   23.3710 C   0  0  0  0  0  0  0  0  0  0  0  0
   12.8755   14.8825   22.3642 C   0  0  0  0  0  0  0  0  0  0  0  0
   12.0758   15.2967   21.2030 N   0  0  0  0  0  0  0  0  0  0  0  0
   12.3142   16.5472   20.4706 C   0  0  0  0  0  0  0  0  0  0  0  0
   13.7493   16.9401   20.1123 C   0  0  0  0  0  0  0  0  0  0  0  0
   14.5824   17.2377   21.3570 C   0  0  0  0  0  0  0  0  0  0  0  0
   13.9650   18.2559   22.1153 O   0  0  0  0  0  0  0  0  0  0  0  0
   12.6352   17.9987   22.5059 C   0  0  0  0  0  0  0  0  0  0  0  0
   11.7241   17.6853   21.3051 C   0  0  0  0  0  0  0  0  0  0  0  0
   10.7354   15.0632   21.4809 C   0  0  0  0  0  0  0  0  0  0  0  0
    9.8375   15.2982   20.6714 O   0  0  0  0  0  0  0  0  0  0  0  0
    9.9640   12.0254   23.1983 C   0  0  0  0  0  0  0  0  0  0  0  0
  1  2  1  0
  2  3  2  0
  2  4  1  0
  4  5  2  0
  5  6  1  0
  6  7  1  0
  6  8  2  0
  8  9  1  0
  9 10  1  0
 11 10  1  6
 11 12  1  0
 12 13  1  0
 13 14  1  0
 14 15  1  0
 15 16  1  0
 16 17  1  0
 17 18  1  0
 18 19  1  0
 19 20  1  0
 14 21  1  0
 21 22  2  0
  9 23  2  0
 23  4  1  0
 21 11  1  0
 20 15  1  0
M  END
>  <cnnaffinity>  (33) 
-5.64512

>  <cnnaffinityIC50>  (33) 
2264.0186496880406 nanomolar

>  <smiles>  (33) 
NC(=O)C1=CC(Br)=CC(OC2CCN(C3CCOCC3)C2=O)=C1 Z5026145405

>  <ref_pdb>  (33) 
Ax0528a

>  <ref_mols>  (33) 
Ax0528a,Ax0556a

>  <rationale>  (33) 
Enamine real space elaborations around a merge of x0528 and x0556.

>  <original SMILES>  (33) 
NC(=O)C1=CC(Br)=CC(OC2CCN(C3CCOCC3)C2=O)=C1

$$$$
Z2721846455
     RDKit          3D

 25 28  0  0  0  0  0  0  0  0999 V2000
    5.1209    9.4471   26.6576 O   0  0  0  0  0  0  0  0  0  0  0  0
    5.8804   10.3971   26.6864 C   0  0  0  0  0  0  0  0  0  0  0  0
    5.5015   11.7326   27.2844 C   0  0  0  0  0  0  0  0  0  0  0  0
    6.6448   12.3771   28.0692 C   0  0  0  0  0  0  0  0  0  0  0  0
    7.5391   13.2329   27.1753 C   0  0  0  0  0  0  0  0  0  0  0  0
    7.9770   12.6368   25.8443 C   0  0  0  0  0  0  0  0  0  0  0  0
    8.4866   13.5401   24.9000 C   0  0  0  0  0  0  0  0  0  0  0  0
    8.9710   13.1180   23.6697 C   0  0  0  0  0  0  0  0  0  0  0  0
    9.2454   14.0119   22.6590 O   0  0  0  0  0  0  0  0  0  0  0  0
   10.5127   14.6491   22.6827 C   0  0  1  0  0  0  0  0  0  0  0  0
   11.7408   13.7238   22.7479 C   0  0  0  0  0  0  0  0  0  0  0  0
   12.6620   14.1418   21.5800 C   0  0  0  0  0  0  0  0  0  0  0  0
   11.8540   15.0434   20.7594 N   0  0  0  0  0  0  0  0  0  0  0  0
   12.4996   16.0805   19.9607 C   0  0  0  0  0  0  0  0  0  0  0  0
   13.1403   15.6142   18.6392 C   0  0  0  0  0  0  0  0  0  0  0  0
   14.3496   16.5000   18.2682 C   0  0  0  0  0  0  0  0  0  0  0  0
   14.1202   17.9760   18.5700 C   0  0  0  0  0  0  0  0  0  0  0  0
   13.7796   18.1877   20.0546 C   0  0  0  0  0  0  0  0  0  0  0  0
   13.4985   16.8838   20.7841 C   0  0  0  0  0  0  0  0  0  0  0  0
   10.6662   15.3992   21.3607 C   0  0  0  0  0  0  0  0  0  0  0  0
    9.8889   16.2241   20.9227 O   0  0  0  0  0  0  0  0  0  0  0  0
    9.0730   11.7530   23.4094 C   0  0  0  0  0  0  0  0  0  0  0  0
    8.5287   10.8535   24.3043 C   0  0  0  0  0  0  0  0  0  0  0  0
    7.8964   11.2841   25.4764 C   0  0  0  0  0  0  0  0  0  0  0  0
    7.1666   10.2902   26.1788 N   0  0  0  0  0  0  0  0  0  0  0  0
  1  2  2  0
  2  3  1  0
  3  4  1  0
  4  5  1  0
  5  6  1  0
  6  7  2  0
  7  8  1  0
  8  9  1  0
 10  9  1  6
 10 11  1  0
 11 12  1  0
 12 13  1  0
 13 14  1  0
 14 15  1  0
 15 16  1  0
 16 17  1  0
 17 18  1  0
 18 19  1  0
 13 20  1  0
 20 21  2  0
  8 22  2  0
 22 23  1  0
 23 24  2  0
 24 25  1  0
 25  2  1  0
 24  6  1  0
 20 10  1  0
 19 14  1  0
M  END
>  <cnnaffinity>  (34) 
-5.6259

>  <cnnaffinityIC50>  (34) 
2366.464533352565 nanomolar

>  <smiles>  (34) 
O=C1CCCC2=CC(OC3CCN(C4CCCCC4)C3=O)=CC=C2N1 Z2721846455

>  <ref_pdb>  (34) 
Ax0528a

>  <ref_mols>  (34) 
Ax0528a,Ax0556a

>  <rationale>  (34) 
Enamine real space elaborations around a merge of x0528 and x0556.

>  <original SMILES>  (34) 
O=C1CCCC2=CC(OC3CCN(C4CCCCC4)C3=O)=CC=C2N1

$$$$
PV-003840923536
     RDKit          3D

 24 25  0  0  0  0  0  0  0  0999 V2000
   14.0254   18.1039   15.9480 C   0  0  0  0  0  0  0  0  0  0  0  0
   13.8942   18.2592   17.4593 C   0  0  0  0  0  0  0  0  0  0  0  0
   13.1439   19.5367   17.8044 C   0  0  0  0  0  0  0  0  0  0  0  0
   15.2945   18.1923   18.0714 C   0  0  0  0  0  0  0  0  0  0  0  0
   13.0586   17.1221   17.8171 O   0  0  0  0  0  0  0  0  0  0  0  0
   12.9497   16.5231   19.0140 C   0  0  0  0  0  0  0  0  0  0  0  0
   12.8055   15.3304   19.0636 O   0  0  0  0  0  0  0  0  0  0  0  0
   12.8800   17.4134   20.2654 C   0  0  0  0  0  0  0  0  0  0  0  0
   12.4795   16.6397   21.4182 N   0  0  0  0  0  0  0  0  0  0  0  0
   13.3994   15.6961   22.0481 C   0  0  0  0  0  0  0  0  0  0  0  0
   12.4835   14.7351   22.8205 C   0  0  0  0  0  0  0  0  0  0  0  0
   11.1467   14.8123   22.0731 C   0  0  1  0  0  0  0  0  0  0  0  0
    9.9885   14.6997   22.8686 O   0  0  0  0  0  0  0  0  0  0  0  0
    9.6864   13.4807   23.4104 C   0  0  0  0  0  0  0  0  0  0  0  0
    8.6160   13.4771   24.3150 C   0  0  0  0  0  0  0  0  0  0  0  0
    8.2021   12.2937   24.9004 C   0  0  0  0  0  0  0  0  0  0  0  0
    8.8473   11.1020   24.5889 C   0  0  0  0  0  0  0  0  0  0  0  0
    8.2881    9.6352   25.3018 Cl  0  0  0  0  0  0  0  0  0  0  0  0
    9.9176   11.0890   23.6958 C   0  0  0  0  0  0  0  0  0  0  0  0
   10.5723    9.8424   23.3945 C   0  0  0  0  0  0  0  0  0  0  0  0
   11.0674    8.8191   23.1717 N   0  0  0  0  0  0  0  0  0  0  0  0
   10.3350   12.2847   23.1023 C   0  0  0  0  0  0  0  0  0  0  0  0
   11.1778   16.1907   21.4165 C   0  0  0  0  0  0  0  0  0  0  0  0
   10.2576   16.7637   20.8727 O   0  0  0  0  0  0  0  0  0  0  0  0
  1  2  1  0
  2  3  1  0
  2  4  1  0
  2  5  1  0
  5  6  1  0
  6  7  2  0
  6  8  1  0
  8  9  1  0
  9 10  1  0
 10 11  1  0
 11 12  1  0
 12 13  1  1
 13 14  1  0
 14 15  2  0
 15 16  1  0
 16 17  2  0
 17 18  1  0
 17 19  1  0
 19 20  1  0
 20 21  3  0
 19 22  2  0
 12 23  1  0
 23 24  2  0
 23  9  1  0
 22 14  1  0
M  END
>  <cnnaffinity>  (35) 
-5.62533

>  <cnnaffinityIC50>  (35) 
2369.572494460551 nanomolar

>  <smiles>  (35) 
CC(C)(C)OC(=O)CN1CCC(OC2=CC=C(Cl)C(C#N)=C2)C1=O PV-003840923536

>  <ref_pdb>  (35) 
Ax0528a

>  <ref_mols>  (35) 
Ax0528a,Ax0556a

>  <rationale>  (35) 
Enamine real space elaborations around a merge of x0528 and x0556.

>  <original SMILES>  (35) 
CC(C)(C)OC(=O)CN1CCC(OC2=CC=C(Cl)C(C#N)=C2)C1=O

$$$$
Z2721907542
     RDKit          3D

 25 27  0  0  0  0  0  0  0  0999 V2000
    9.7130   15.2532   20.5305 O   0  0  0  0  0  0  0  0  0  0  0  0
   10.6120   14.7213   21.1494 C   0  0  0  0  0  0  0  0  0  0  0  0
   10.5303   13.5384   22.1154 C   0  0  2  0  0  0  0  0  0  0  0  0
    9.3638   13.5410   22.9002 O   0  0  0  0  0  0  0  0  0  0  0  0
    9.1394   12.3642   23.5611 C   0  0  0  0  0  0  0  0  0  0  0  0
    8.1813   12.3692   24.5738 C   0  0  0  0  0  0  0  0  0  0  0  0
    7.9148   11.1990   25.2723 C   0  0  0  0  0  0  0  0  0  0  0  0
    6.8647   11.2378   26.3442 C   0  0  0  0  0  0  0  0  0  0  0  0
    6.9607   10.2017   27.1944 F   0  0  0  0  0  0  0  0  0  0  0  0
    5.6173   11.2145   25.8346 F   0  0  0  0  0  0  0  0  0  0  0  0
    6.9602   12.3674   27.0733 F   0  0  0  0  0  0  0  0  0  0  0  0
    8.5887   10.0123   24.9824 C   0  0  0  0  0  0  0  0  0  0  0  0
    9.5402   10.0128   23.9716 C   0  0  0  0  0  0  0  0  0  0  0  0
   10.3051    8.8056   23.5066 C   0  0  0  0  0  0  0  0  0  0  0  0
   10.1302    8.6376   22.1047 O   0  0  0  0  0  0  0  0  0  0  0  0
    9.7958   11.1761   23.2573 C   0  0  0  0  0  0  0  0  0  0  0  0
   11.8481   13.6142   22.8975 C   0  0  0  0  0  0  0  0  0  0  0  0
   12.8135   14.1945   21.8647 C   0  0  0  0  0  0  0  0  0  0  0  0
   11.9426   14.9945   21.0202 N   0  0  0  0  0  0  0  0  0  0  0  0
   12.4109   16.0751   20.1873 C   0  0  0  0  0  0  0  0  0  0  0  0
   12.9652   15.6478   18.8038 C   0  0  0  0  0  0  0  0  0  0  0  0
   14.1930   16.4805   18.3817 C   0  0  0  0  0  0  0  0  0  0  0  0
   14.0938   17.9753   18.6915 C   0  0  0  0  0  0  0  0  0  0  0  0
   13.5683   18.2272   20.1163 C   0  0  0  0  0  0  0  0  0  0  0  0
   13.4125   16.9511   20.9259 C   0  0  0  0  0  0  0  0  0  0  0  0
  1  2  2  0
  2  3  1  0
  3  4  1  1
  4  5  1  0
  5  6  2  0
  6  7  1  0
  7  8  1  0
  8  9  1  0
  8 10  1  0
  8 11  1  0
  7 12  2  0
 12 13  1  0
 13 14  1  0
 14 15  1  0
 13 16  2  0
  3 17  1  0
 17 18  1  0
 18 19  1  0
 19 20  1  0
 20 21  1  0
 21 22  1  0
 22 23  1  0
 23 24  1  0
 24 25  1  0
 19  2  1  0
 25 20  1  0
 16  5  1  0
M  END
>  <cnnaffinity>  (36) 
-5.62323

>  <cnnaffinityIC50>  (36) 
2381.058139926493 nanomolar

>  <smiles>  (36) 
O=C1C(OC2=CC(C(F)(F)F)=CC(CO)=C2)CCN1C1CCCCC1 Z2721907542

>  <ref_pdb>  (36) 
Ax0528a

>  <ref_mols>  (36) 
Ax0528a,Ax0556a

>  <rationale>  (36) 
Enamine real space elaborations around a merge of x0528 and x0556.

>  <original SMILES>  (36) 
O=C1C(OC2=CC(C(F)(F)F)=CC(CO)=C2)CCN1C1CCCCC1

$$$$
Z2442798079
     RDKit          3D

 23 25  0  0  0  0  0  0  0  0999 V2000
   10.4097    9.3459   21.6630 N   0  0  0  0  0  0  0  0  0  0  0  0
   10.6821    9.6966   22.9562 C   0  0  0  0  0  0  0  0  0  0  0  0
   11.6505    9.1763   23.4735 O   0  0  0  0  0  0  0  0  0  0  0  0
    9.8660   10.7036   23.6311 C   0  0  0  0  0  0  0  0  0  0  0  0
    9.0227   10.3735   24.7079 C   0  0  0  0  0  0  0  0  0  0  0  0
    8.2314   11.3587   25.3060 C   0  0  0  0  0  0  0  0  0  0  0  0
    8.3133   12.6883   24.8696 C   0  0  0  0  0  0  0  0  0  0  0  0
    7.2412   14.0101   25.7469 Br  0  0  0  0  0  0  0  0  0  0  0  0
    9.1726   13.0383   23.8101 C   0  0  0  0  0  0  0  0  0  0  0  0
    9.2495   14.3426   23.3903 O   0  0  0  0  0  0  0  0  0  0  0  0
   10.5083   14.9069   22.9279 C   0  0  1  0  0  0  0  0  0  0  0  0
   11.8401   14.2593   23.3212 C   0  0  0  0  0  0  0  0  0  0  0  0
   12.8543   14.8810   22.3357 C   0  0  0  0  0  0  0  0  0  0  0  0
   12.0737   15.3073   21.1703 N   0  0  0  0  0  0  0  0  0  0  0  0
   12.3299   16.5685   20.4566 C   0  0  0  0  0  0  0  0  0  0  0  0
   11.7397   17.7075   21.2880 C   0  0  0  0  0  0  0  0  0  0  0  0
   12.6419   17.9992   22.5005 C   0  0  0  0  0  0  0  0  0  0  0  0
   13.9739   18.2577   22.1199 O   0  0  0  0  0  0  0  0  0  0  0  0
   14.5940   17.2424   21.3608 C   0  0  0  0  0  0  0  0  0  0  0  0
   13.7731   16.9510   20.1085 C   0  0  0  0  0  0  0  0  0  0  0  0
   10.7308   15.0667   21.4255 C   0  0  0  0  0  0  0  0  0  0  0  0
    9.8578   15.2681   20.5829 O   0  0  0  0  0  0  0  0  0  0  0  0
    9.9077   12.0336   23.1788 C   0  0  0  0  0  0  0  0  0  0  0  0
  1  2  1  0
  2  3  2  0
  2  4  1  0
  4  5  2  0
  5  6  1  0
  6  7  2  0
  7  8  1  0
  7  9  1  0
  9 10  1  0
 11 10  1  6
 11 12  1  0
 12 13  1  0
 13 14  1  0
 14 15  1  0
 15 16  1  0
 16 17  1  0
 17 18  1  0
 18 19  1  0
 19 20  1  0
 14 21  1  0
 21 22  2  0
  9 23  2  0
 23  4  1  0
 21 11  1  0
 20 15  1  0
M  END
>  <cnnaffinity>  (37) 
-5.61471

>  <cnnaffinityIC50>  (37) 
2428.2310043101143 nanomolar

>  <smiles>  (37) 
NC(=O)C1=CC=C(Br)C(OC2CCN(C3CCOCC3)C2=O)=C1 Z2442798079

>  <ref_pdb>  (37) 
Ax0528a

>  <ref_mols>  (37) 
Ax0528a,Ax0556a

>  <rationale>  (37) 
Enamine real space elaborations around a merge of x0528 and x0556.

>  <original SMILES>  (37) 
NC(=O)C1=CC=C(Br)C(OC2CCN(C3CCOCC3)C2=O)=C1

$$$$
Z5026145690
     RDKit          3D

 23 24  0  0  0  0  0  0  0  0999 V2000
   13.1170   13.2255   19.6360 C   0  0  0  0  0  0  0  0  0  0  0  0
   12.7080   14.4466   20.2737 O   0  0  0  0  0  0  0  0  0  0  0  0
   12.7444   15.5614   19.5019 C   0  0  0  0  0  0  0  0  0  0  0  0
   13.0931   15.6031   18.3279 O   0  0  0  0  0  0  0  0  0  0  0  0
   12.2527   16.8698   20.1049 C   0  0  0  0  0  0  0  0  0  0  0  0
   12.8096   17.1371   21.4999 C   0  0  0  0  0  0  0  0  0  0  0  0
   12.3393   16.0915   22.3888 N   0  0  0  0  0  0  0  0  0  0  0  0
   13.1927   14.9942   22.8193 C   0  0  0  0  0  0  0  0  0  0  0  0
   12.2302   13.9212   23.3482 C   0  0  0  0  0  0  0  0  0  0  0  0
   10.8332   14.2936   22.8244 C   0  0  1  0  0  0  0  0  0  0  0  0
    9.8027   14.0508   23.8080 O   0  0  0  0  0  0  0  0  0  0  0  0
    9.4653   12.7347   24.0124 C   0  0  0  0  0  0  0  0  0  0  0  0
    8.5327   12.4205   25.0056 C   0  0  0  0  0  0  0  0  0  0  0  0
    8.1735   11.0899   25.2519 C   0  0  0  0  0  0  0  0  0  0  0  0
    6.8725   10.6609   26.5867 Br  0  0  0  0  0  0  0  0  0  0  0  0
    8.7599   10.0655   24.5045 C   0  0  0  0  0  0  0  0  0  0  0  0
    9.6915   10.3523   23.4879 C   0  0  0  0  0  0  0  0  0  0  0  0
   10.3206    9.2779   22.7026 C   0  0  0  0  0  0  0  0  0  0  0  0
   10.7480    8.1260   23.3034 N   0  0  0  0  0  0  0  0  0  0  0  0
   10.6149    9.4022   21.5268 O   0  0  0  0  0  0  0  0  0  0  0  0
   10.0218   11.6982   23.2507 C   0  0  0  0  0  0  0  0  0  0  0  0
   10.9995   15.7501   22.4223 C   0  0  0  0  0  0  0  0  0  0  0  0
   10.1046   16.4369   21.9342 O   0  0  0  0  0  0  0  0  0  0  0  0
  1  2  1  0
  2  3  1  0
  3  4  2  0
  3  5  1  0
  5  6  1  0
  6  7  1  0
  7  8  1  0
  8  9  1  0
  9 10  1  0
 10 11  1  1
 11 12  1  0
 12 13  2  0
 13 14  1  0
 14 15  1  0
 14 16  2  0
 16 17  1  0
 17 18  1  0
 18 19  1  0
 18 20  2  0
 17 21  2  0
 10 22  1  0
 22 23  2  0
 22  7  1  0
 21 12  1  0
M  END
>  <cnnaffinity>  (38) 
-5.59574

>  <cnnaffinityIC50>  (38) 
2536.646795736453 nanomolar

>  <smiles>  (38) 
COC(=O)CCN1CCC(OC2=CC(Br)=CC(C(N)=O)=C2)C1=O Z5026145690

>  <ref_pdb>  (38) 
Ax0528a

>  <ref_mols>  (38) 
Ax0528a,Ax0556a

>  <rationale>  (38) 
Enamine real space elaborations around a merge of x0528 and x0556.

>  <original SMILES>  (38) 
COC(=O)CCN1CCC(OC2=CC(Br)=CC(C(N)=O)=C2)C1=O

$$$$
Z1983254936
     RDKit          3D

 24 25  0  0  0  0  0  0  0  0999 V2000
   12.4918   15.4392   19.3031 C   0  0  0  0  0  0  0  0  0  0  0  0
   12.7974   16.5414   19.9787 C   0  0  0  0  0  0  0  0  0  0  0  0
   12.3660   16.8896   21.3868 C   0  0  0  0  0  0  0  0  0  0  0  0
   11.8711   15.7925   22.1775 N   0  0  0  0  0  0  0  0  0  0  0  0
   12.7165   14.8705   22.9184 C   0  0  0  0  0  0  0  0  0  0  0  0
   11.7775   13.6822   23.2016 C   0  0  0  0  0  0  0  0  0  0  0  0
   10.3639   14.2858   23.0989 C   0  0  2  0  0  0  0  0  0  0  0  0
    9.3477   13.4155   22.6448 O   0  0  0  0  0  0  0  0  0  0  0  0
    9.0524   12.3959   23.5229 C   0  0  0  0  0  0  0  0  0  0  0  0
    8.1916   12.5941   24.5919 C   0  0  0  0  0  0  0  0  0  0  0  0
    7.8060   11.5296   25.4293 C   0  0  0  0  0  0  0  0  0  0  0  0
    6.7874   11.7098   26.4792 C   0  0  0  0  0  0  0  0  0  0  0  0
    6.2875   10.7249   27.2397 C   0  0  0  0  0  0  0  0  0  0  0  0
    5.1650   10.8743   28.1922 C   0  0  0  0  0  0  0  0  0  0  0  0
    4.7308    9.9626   28.8585 O   0  0  0  0  0  0  0  0  0  0  0  0
    4.6523   12.1198   28.2418 O   0  0  0  0  0  0  0  0  0  0  0  0
    3.5447   12.2472   29.1332 C   0  0  0  0  0  0  0  0  0  0  0  0
    8.4037   10.2919   25.2126 C   0  0  0  0  0  0  0  0  0  0  0  0
    9.2844   10.0857   24.1642 C   0  0  0  0  0  0  0  0  0  0  0  0
    9.5821   11.1139   23.2740 C   0  0  0  0  0  0  0  0  0  0  0  0
   10.3484   10.9511   22.1676 O   0  0  0  0  0  0  0  0  0  0  0  0
   10.7449    9.6262   21.8770 C   0  0  0  0  0  0  0  0  0  0  0  0
   10.5584   15.4325   22.1026 C   0  0  0  0  0  0  0  0  0  0  0  0
    9.7368   15.9717   21.3883 O   0  0  0  0  0  0  0  0  0  0  0  0
  1  2  2  0
  2  3  1  0
  3  4  1  0
  4  5  1  0
  5  6  1  0
  6  7  1  0
  7  8  1  6
  8  9  1  0
  9 10  2  0
 10 11  1  0
 11 12  1  0
 12 13  2  3
 13 14  1  0
 14 15  2  0
 14 16  1  0
 16 17  1  0
 11 18  2  0
 18 19  1  0
 19 20  2  0
 20 21  1  0
 21 22  1  0
  7 23  1  0
 23 24  2  0
 23  4  1  0
 20  9  1  0
M  END
>  <cnnaffinity>  (39) 
-5.58333

>  <cnnaffinityIC50>  (39) 
2610.1772494564025 nanomolar

>  <smiles>  (39) 
C=CCN1CCC(OC2=CC(C=CC(=O)OC)=CC=C2OC)C1=O Z1983254936

>  <ref_pdb>  (39) 
Ax0528a

>  <ref_mols>  (39) 
Ax0528a,Ax0556a

>  <rationale>  (39) 
Enamine real space elaborations around a merge of x0528 and x0556.

>  <original SMILES>  (39) 
C=CCN1CCC(OC2=CC(C=CC(=O)OC)=CC=C2OC)C1=O

$$$$
Z2614219026
     RDKit          3D

 25 27  0  0  0  0  0  0  0  0999 V2000
    9.8957   15.3720   20.9972 O   0  0  0  0  0  0  0  0  0  0  0  0
   10.8424   15.1116   21.7074 C   0  0  0  0  0  0  0  0  0  0  0  0
   10.8372   14.5676   23.1274 C   0  0  1  0  0  0  0  0  0  0  0  0
    9.5938   13.9997   23.4257 O   0  0  0  0  0  0  0  0  0  0  0  0
    9.3614   12.7302   23.8538 C   0  0  0  0  0  0  0  0  0  0  0  0
    8.2931   12.5999   24.7460 C   0  0  0  0  0  0  0  0  0  0  0  0
    7.9117   11.3409   25.1804 C   0  0  0  0  0  0  0  0  0  0  0  0
    6.7408   11.1953   26.1107 C   0  0  0  0  0  0  0  0  0  0  0  0
    7.1208   11.0553   27.3942 F   0  0  0  0  0  0  0  0  0  0  0  0
    6.0045   10.1094   25.8078 F   0  0  0  0  0  0  0  0  0  0  0  0
    5.9232   12.2628   26.0597 F   0  0  0  0  0  0  0  0  0  0  0  0
    8.5987   10.2050   24.7486 C   0  0  0  0  0  0  0  0  0  0  0  0
    9.6384   10.3415   23.8340 C   0  0  0  0  0  0  0  0  0  0  0  0
   10.3829    9.1771   23.2360 C   0  0  0  0  0  0  0  0  0  0  0  0
   10.2003    9.1203   21.8249 O   0  0  0  0  0  0  0  0  0  0  0  0
    9.9878   11.6011   23.3500 C   0  0  0  0  0  0  0  0  0  0  0  0
   12.2026   13.8674   23.2121 C   0  0  0  0  0  0  0  0  0  0  0  0
   13.0705   14.8595   22.4117 C   0  0  0  0  0  0  0  0  0  0  0  0
   12.1583   15.3915   21.4012 N   0  0  0  0  0  0  0  0  0  0  0  0
   12.3371   16.6075   20.6087 C   0  0  0  0  0  0  0  0  0  0  0  0
   13.7594   16.9687   20.1885 C   0  0  0  0  0  0  0  0  0  0  0  0
   14.6333   17.3971   21.3618 C   0  0  0  0  0  0  0  0  0  0  0  0
   14.0024   18.4023   22.1154 O   0  0  0  0  0  0  0  0  0  0  0  0
   12.7033   18.1194   22.5570 C   0  0  0  0  0  0  0  0  0  0  0  0
   11.7750   17.8076   21.3751 C   0  0  0  0  0  0  0  0  0  0  0  0
  1  2  2  0
  2  3  1  0
  3  4  1  6
  4  5  1  0
  5  6  2  0
  6  7  1  0
  7  8  1  0
  8  9  1  0
  8 10  1  0
  8 11  1  0
  7 12  2  0
 12 13  1  0
 13 14  1  0
 14 15  1  0
 13 16  2  0
  3 17  1  0
 17 18  1  0
 18 19  1  0
 19 20  1  0
 20 21  1  0
 21 22  1  0
 22 23  1  0
 23 24  1  0
 24 25  1  0
 19  2  1  0
 25 20  1  0
 16  5  1  0
M  END
>  <cnnaffinity>  (40) 
-5.56344

>  <cnnaffinityIC50>  (40) 
2732.498926479996 nanomolar

>  <smiles>  (40) 
O=C1C(OC2=CC(C(F)(F)F)=CC(CO)=C2)CCN1C1CCOCC1 Z2614219026

>  <ref_pdb>  (40) 
Ax0528a

>  <ref_mols>  (40) 
Ax0528a,Ax0556a

>  <rationale>  (40) 
Enamine real space elaborations around a merge of x0528 and x0556.

>  <original SMILES>  (40) 
O=C1C(OC2=CC(C(F)(F)F)=CC(CO)=C2)CCN1C1CCOCC1

$$$$
PV-006372492578
     RDKit          3D

 22 23  0  0  0  0  0  0  0  0999 V2000
   10.5336    8.1346   23.5116 N   0  0  0  0  0  0  0  0  0  0  0  0
   10.2576    9.3379   22.9232 C   0  0  0  0  0  0  0  0  0  0  0  0
   10.6694    9.4501   21.7800 O   0  0  0  0  0  0  0  0  0  0  0  0
    9.6295   10.4657   23.6471 C   0  0  0  0  0  0  0  0  0  0  0  0
    8.6526   10.2892   24.6500 C   0  0  0  0  0  0  0  0  0  0  0  0
    8.0484   11.3986   25.2570 C   0  0  0  0  0  0  0  0  0  0  0  0
    6.6625   11.1326   26.5484 Br  0  0  0  0  0  0  0  0  0  0  0  0
    8.4393   12.6961   24.8950 C   0  0  0  0  0  0  0  0  0  0  0  0
    9.4258   12.9060   23.9254 C   0  0  0  0  0  0  0  0  0  0  0  0
    9.7863   14.1921   23.5731 O   0  0  0  0  0  0  0  0  0  0  0  0
   10.8038   14.3068   22.5424 C   0  0  2  0  0  0  0  0  0  0  0  0
   12.2235   14.1339   23.1214 C   0  0  0  0  0  0  0  0  0  0  0  0
   13.0787   15.3184   22.6227 C   0  0  0  0  0  0  0  0  0  0  0  0
   12.2160   16.0725   21.7217 N   0  0  0  0  0  0  0  0  0  0  0  0
   12.6878   17.1972   20.8736 C   0  0  0  0  0  0  0  0  0  0  0  0
   13.0999   16.9057   19.3969 C   0  0  0  0  0  0  0  0  0  0  0  0
   14.4446   16.7645   19.2705 F   0  0  0  0  0  0  0  0  0  0  0  0
   12.7426   17.9680   18.6217 F   0  0  0  0  0  0  0  0  0  0  0  0
   12.4830   15.7976   18.9081 F   0  0  0  0  0  0  0  0  0  0  0  0
   10.8985   15.6449   21.8105 C   0  0  0  0  0  0  0  0  0  0  0  0
   10.0011   16.1930   21.1731 O   0  0  0  0  0  0  0  0  0  0  0  0
    9.9980   11.7820   23.3143 C   0  0  0  0  0  0  0  0  0  0  0  0
  1  2  1  0
  2  3  2  0
  2  4  1  0
  4  5  2  0
  5  6  1  0
  6  7  1  0
  6  8  2  0
  8  9  1  0
  9 10  1  0
 11 10  1  1
 11 12  1  0
 12 13  1  0
 13 14  1  0
 14 15  1  0
 15 16  1  0
 16 17  1  0
 16 18  1  0
 16 19  1  0
 14 20  1  0
 20 21  2  0
  9 22  2  0
 22  4  1  0
 20 11  1  0
M  END
>  <cnnaffinity>  (41) 
-5.56189

>  <cnnaffinityIC50>  (41) 
2742.2686577355244 nanomolar

>  <smiles>  (41) 
NC(=O)C1=CC(Br)=CC(OC2CCN(CC(F)(F)F)C2=O)=C1 PV-006372492578

>  <ref_pdb>  (41) 
Ax0528a

>  <ref_mols>  (41) 
Ax0528a,Ax0556a

>  <rationale>  (41) 
Enamine real space elaborations around a merge of x0528 and x0556.

>  <original SMILES>  (41) 
NC(=O)C1=CC(Br)=CC(OC2CCN(CC(F)(F)F)C2=O)=C1

$$$$
Z1839020973
     RDKit          3D

 22 24  0  0  0  0  0  0  0  0999 V2000
    7.2954   12.3476   25.9348 C   0  0  0  0  0  0  0  0  0  0  0  0
    8.4017   12.2530   24.9167 C   0  0  0  0  0  0  0  0  0  0  0  0
    8.8862   13.4011   24.2867 C   0  0  0  0  0  0  0  0  0  0  0  0
    9.8827   13.2882   23.3203 C   0  0  0  0  0  0  0  0  0  0  0  0
   10.3110   14.4013   22.6559 O   0  0  0  0  0  0  0  0  0  0  0  0
   11.1495   14.0622   21.5391 C   0  0  2  0  0  0  0  0  0  0  0  0
   12.5886   13.8217   21.9844 C   0  0  0  0  0  0  0  0  0  0  0  0
   13.2865   15.1309   21.6461 C   0  0  0  0  0  0  0  0  0  0  0  0
   12.5559   15.6730   20.4993 N   0  0  0  0  0  0  0  0  0  0  0  0
   12.6171   17.0728   20.1413 C   0  0  0  0  0  0  0  0  0  0  0  0
   14.0385   17.5513   19.8849 C   0  0  0  0  0  0  0  0  0  0  0  0
   14.7933   17.6536   21.1934 C   0  0  0  0  0  0  0  0  0  0  0  0
   14.0723   18.4888   22.0881 O   0  0  0  0  0  0  0  0  0  0  0  0
   12.7751   18.0720   22.4831 C   0  0  0  0  0  0  0  0  0  0  0  0
   11.8781   17.8164   21.2607 C   0  0  0  0  0  0  0  0  0  0  0  0
   11.2799   15.1437   20.5166 C   0  0  0  0  0  0  0  0  0  0  0  0
   10.2886   15.5863   19.9514 O   0  0  0  0  0  0  0  0  0  0  0  0
   10.4186   12.0298   23.0099 C   0  0  0  0  0  0  0  0  0  0  0  0
    9.9721   10.8857   23.6259 C   0  0  0  0  0  0  0  0  0  0  0  0
   10.6348    9.5834   23.2700 C   0  0  0  0  0  0  0  0  0  0  0  0
    8.9454   11.0076   24.5634 C   0  0  0  0  0  0  0  0  0  0  0  0
    8.2520    9.4634   25.3424 Br  0  0  0  0  0  0  0  0  0  0  0  0
  1  2  1  0
  2  3  2  0
  3  4  1  0
  4  5  1  0
  6  5  1  1
  6  7  1  0
  7  8  1  0
  8  9  1  0
  9 10  1  0
 10 11  1  0
 11 12  1  0
 12 13  1  0
 13 14  1  0
 14 15  1  0
  9 16  1  0
 16 17  2  0
  4 18  2  0
 18 19  1  0
 19 20  1  0
 19 21  2  0
 21 22  1  0
 21  2  1  0
 16  6  1  0
 15 10  1  0
M  END
>  <cnnaffinity>  (42) 
-5.55547

>  <cnnaffinityIC50>  (42) 
2783.1076174760374 nanomolar

>  <smiles>  (42) 
CC1=CC(OC2CCN(C3CCOCC3)C2=O)=CC(C)=C1Br Z1839020973

>  <ref_pdb>  (42) 
Ax0528a

>  <ref_mols>  (42) 
Ax0528a,Ax0556a

>  <rationale>  (42) 
Enamine real space elaborations around a merge of x0528 and x0556.

>  <original SMILES>  (42) 
CC1=CC(OC2CCN(C3CCOCC3)C2=O)=CC(C)=C1Br

$$$$
Z2589230725
     RDKit          3D

 24 25  0  0  0  0  0  0  0  0999 V2000
   13.8790   18.1014   16.3059 C   0  0  0  0  0  0  0  0  0  0  0  0
   13.7285   18.0488   17.8208 C   0  0  0  0  0  0  0  0  0  0  0  0
   15.1094   18.0273   18.4673 C   0  0  0  0  0  0  0  0  0  0  0  0
   12.9400   19.2441   18.3168 C   0  0  0  0  0  0  0  0  0  0  0  0
   12.9721   16.8213   18.0484 O   0  0  0  0  0  0  0  0  0  0  0  0
   12.8224   16.1655   19.2206 C   0  0  0  0  0  0  0  0  0  0  0  0
   12.7860   14.9629   19.2399 O   0  0  0  0  0  0  0  0  0  0  0  0
   12.5837   17.0016   20.4916 C   0  0  0  0  0  0  0  0  0  0  0  0
   12.1938   16.1737   21.6093 N   0  0  0  0  0  0  0  0  0  0  0  0
   13.1665   15.3078   22.2677 C   0  0  0  0  0  0  0  0  0  0  0  0
   12.3238   14.2143   22.9473 C   0  0  0  0  0  0  0  0  0  0  0  0
   10.9434   14.3030   22.2838 C   0  0  1  0  0  0  0  0  0  0  0  0
    9.8473   14.2172   23.1661 O   0  0  0  0  0  0  0  0  0  0  0  0
    9.5303   12.9963   23.6794 C   0  0  0  0  0  0  0  0  0  0  0  0
    8.4671   12.9931   24.5887 C   0  0  0  0  0  0  0  0  0  0  0  0
    8.0338   11.7886   25.1214 C   0  0  0  0  0  0  0  0  0  0  0  0
    6.6903   11.7931   26.2240 Cl  0  0  0  0  0  0  0  0  0  0  0  0
    8.6354   10.5796   24.7866 C   0  0  0  0  0  0  0  0  0  0  0  0
    9.6940   10.6066   23.8784 C   0  0  0  0  0  0  0  0  0  0  0  0
   10.3203    9.3741   23.4709 C   0  0  0  0  0  0  0  0  0  0  0  0
   10.8233    8.3846   23.1379 N   0  0  0  0  0  0  0  0  0  0  0  0
   10.1557   11.8039   23.3268 C   0  0  0  0  0  0  0  0  0  0  0  0
   10.9128   15.6816   21.6302 C   0  0  0  0  0  0  0  0  0  0  0  0
    9.9490   16.2179   21.1263 O   0  0  0  0  0  0  0  0  0  0  0  0
  1  2  1  0
  2  3  1  0
  2  4  1  0
  2  5  1  0
  5  6  1  0
  6  7  2  0
  6  8  1  0
  8  9  1  0
  9 10  1  0
 10 11  1  0
 11 12  1  0
 12 13  1  1
 13 14  1  0
 14 15  2  0
 15 16  1  0
 16 17  1  0
 16 18  2  0
 18 19  1  0
 19 20  1  0
 20 21  3  0
 19 22  2  0
 12 23  1  0
 23 24  2  0
 23  9  1  0
 22 14  1  0
M  END
>  <cnnaffinity>  (43) 
-5.55419

>  <cnnaffinityIC50>  (43) 
2791.322395176881 nanomolar

>  <smiles>  (43) 
CC(C)(C)OC(=O)CN1CCC(OC2=CC(Cl)=CC(C#N)=C2)C1=O Z2589230725

>  <ref_pdb>  (43) 
Ax0528a

>  <ref_mols>  (43) 
Ax0528a,Ax0556a

>  <rationale>  (43) 
Enamine real space elaborations around a merge of x0528 and x0556.

>  <original SMILES>  (43) 
CC(C)(C)OC(=O)CN1CCC(OC2=CC(Cl)=CC(C#N)=C2)C1=O

$$$$
Z1171242899
     RDKit          3D

 26 27  0  0  0  0  0  0  0  0999 V2000
    9.9782   16.5860   21.6987 O   0  0  0  0  0  0  0  0  0  0  0  0
   10.8812   15.9103   22.1437 C   0  0  0  0  0  0  0  0  0  0  0  0
   10.7522   14.7630   23.1404 C   0  0  1  0  0  0  0  0  0  0  0  0
    9.6390   13.9765   22.7380 O   0  0  0  0  0  0  0  0  0  0  0  0
    9.4018   12.8265   23.4464 C   0  0  0  0  0  0  0  0  0  0  0  0
    8.4617   12.7992   24.4766 C   0  0  0  0  0  0  0  0  0  0  0  0
    8.2035   11.5924   25.1283 C   0  0  0  0  0  0  0  0  0  0  0  0
    7.1308   11.5261   26.1792 C   0  0  0  0  0  0  0  0  0  0  0  0
    7.2358   10.4204   26.9383 F   0  0  0  0  0  0  0  0  0  0  0  0
    7.1697   12.5867   27.0075 F   0  0  0  0  0  0  0  0  0  0  0  0
    5.8966   11.5099   25.6376 F   0  0  0  0  0  0  0  0  0  0  0  0
    8.8872   10.4289   24.7862 C   0  0  0  0  0  0  0  0  0  0  0  0
    9.8107   10.4794   23.7522 C   0  0  0  0  0  0  0  0  0  0  0  0
   10.6285    9.2997   23.3373 C   0  0  0  0  0  0  0  0  0  0  0  0
   10.6332    9.1872   21.9929 F   0  0  0  0  0  0  0  0  0  0  0  0
   11.9135    9.4302   23.7181 F   0  0  0  0  0  0  0  0  0  0  0  0
   10.1886    8.1397   23.8402 F   0  0  0  0  0  0  0  0  0  0  0  0
   10.0441   11.6592   23.0600 C   0  0  0  0  0  0  0  0  0  0  0  0
   12.1519   14.1155   23.1311 C   0  0  0  0  0  0  0  0  0  0  0  0
   13.0837   15.2524   22.6753 C   0  0  0  0  0  0  0  0  0  0  0  0
   12.2083   16.0794   21.8632 N   0  0  0  0  0  0  0  0  0  0  0  0
   12.6627   17.1786   21.0698 C   0  0  0  0  0  0  0  0  0  0  0  0
   13.0018   16.8209   19.6135 C   0  0  0  0  0  0  0  0  0  0  0  0
   14.3241   16.6389   19.4380 F   0  0  0  0  0  0  0  0  0  0  0  0
   12.3767   15.7310   19.1650 F   0  0  0  0  0  0  0  0  0  0  0  0
   12.6518   17.8523   18.8183 F   0  0  0  0  0  0  0  0  0  0  0  0
  1  2  2  0
  2  3  1  0
  3  4  1  6
  4  5  1  0
  5  6  2  0
  6  7  1  0
  7  8  1  0
  8  9  1  0
  8 10  1  0
  8 11  1  0
  7 12  2  0
 12 13  1  0
 13 14  1  0
 14 15  1  0
 14 16  1  0
 14 17  1  0
 13 18  2  0
  3 19  1  0
 19 20  1  0
 20 21  1  0
 21 22  1  0
 22 23  1  0
 23 24  1  0
 23 25  1  0
 23 26  1  0
 21  2  1  0
 18  5  1  0
M  END
>  <cnnaffinity>  (44) 
-5.5273

>  <cnnaffinityIC50>  (44) 
2969.613986399162 nanomolar

>  <smiles>  (44) 
O=C1C(OC2=CC(C(F)(F)F)=CC(C(F)(F)F)=C2)CCN1CC(F)(F)F Z1171242899

>  <ref_pdb>  (44) 
Ax0528a

>  <ref_mols>  (44) 
Ax0528a,Ax0556a

>  <rationale>  (44) 
Enamine real space elaborations around a merge of x0528 and x0556.

>  <original SMILES>  (44) 
O=C1C(OC2=CC(C(F)(F)F)=CC(C(F)(F)F)=C2)CCN1CC(F)(F)F

$$$$
Z3340437790
     RDKit          3D

 22 24  0  0  0  0  0  0  0  0999 V2000
   10.5470    9.0109   23.5028 C   0  0  0  0  0  0  0  0  0  0  0  0
    9.8323   10.2222   24.0192 C   0  0  0  0  0  0  0  0  0  0  0  0
    8.7248   10.1302   24.8635 C   0  0  0  0  0  0  0  0  0  0  0  0
    8.0485   11.2829   25.2848 C   0  0  0  0  0  0  0  0  0  0  0  0
    6.6604   11.1201   26.3405 Cl  0  0  0  0  0  0  0  0  0  0  0  0
    8.4705   12.5477   24.8349 C   0  0  0  0  0  0  0  0  0  0  0  0
    7.5289   14.1336   25.3719 Br  0  0  0  0  0  0  0  0  0  0  0  0
    9.5667   12.6456   23.9633 C   0  0  0  0  0  0  0  0  0  0  0  0
    9.9178   13.8642   23.4240 O   0  0  0  0  0  0  0  0  0  0  0  0
   10.8854   13.7949   22.3514 C   0  0  2  0  0  0  0  0  0  0  0  0
   12.3115   13.8269   22.9193 C   0  0  0  0  0  0  0  0  0  0  0  0
   13.0637   14.9251   22.1617 C   0  0  0  0  0  0  0  0  0  0  0  0
   12.1463   15.4301   21.1507 N   0  0  0  0  0  0  0  0  0  0  0  0
   12.3212   16.6992   20.4650 C   0  0  0  0  0  0  0  0  0  0  0  0
   11.7173   17.7617   21.3736 C   0  0  0  0  0  0  0  0  0  0  0  0
   12.6603   18.0315   22.5609 C   0  0  0  0  0  0  0  0  0  0  0  0
   13.9769   18.3061   22.1327 O   0  0  0  0  0  0  0  0  0  0  0  0
   14.5857   17.2849   21.3722 C   0  0  0  0  0  0  0  0  0  0  0  0
   13.7678   17.0395   20.1114 C   0  0  0  0  0  0  0  0  0  0  0  0
   10.8733   14.9407   21.3516 C   0  0  0  0  0  0  0  0  0  0  0  0
    9.8900   15.3344   20.7220 O   0  0  0  0  0  0  0  0  0  0  0  0
   10.2505   11.4773   23.6008 C   0  0  0  0  0  0  0  0  0  0  0  0
  1  2  1  0
  2  3  2  0
  3  4  1  0
  4  5  1  0
  4  6  2  0
  6  7  1  0
  6  8  1  0
  8  9  1  0
 10  9  1  1
 10 11  1  0
 11 12  1  0
 12 13  1  0
 13 14  1  0
 14 15  1  0
 15 16  1  0
 16 17  1  0
 17 18  1  0
 18 19  1  0
 13 20  1  0
 20 21  2  0
  8 22  2  0
 22  2  1  0
 20 10  1  0
 19 14  1  0
M  END
>  <cnnaffinity>  (45) 
-5.51124

>  <cnnaffinityIC50>  (45) 
3081.4845883218436 nanomolar

>  <smiles>  (45) 
CC1=CC(Cl)=C(Br)C(OC2CCN(C3CCOCC3)C2=O)=C1 Z3340437790

>  <ref_pdb>  (45) 
Ax0528a

>  <ref_mols>  (45) 
Ax0528a,Ax0556a

>  <rationale>  (45) 
Enamine real space elaborations around a merge of x0528 and x0556.

>  <original SMILES>  (45) 
CC1=CC(Cl)=C(Br)C(OC2CCN(C3CCOCC3)C2=O)=C1

$$$$
Z5026145729
     RDKit          3D

 21 23  0  0  0  0  0  0  0  0999 V2000
   10.0836    9.1700   21.9098 N   0  0  0  0  0  0  0  0  0  0  0  0
   10.4498    9.6452   23.1391 C   0  0  0  0  0  0  0  0  0  0  0  0
   11.4924    9.2128   23.5885 O   0  0  0  0  0  0  0  0  0  0  0  0
    9.6762   10.7293   23.7552 C   0  0  0  0  0  0  0  0  0  0  0  0
    8.6184   10.4980   24.6559 C   0  0  0  0  0  0  0  0  0  0  0  0
    7.8104   11.5615   25.0845 C   0  0  0  0  0  0  0  0  0  0  0  0
    6.3176   11.2074   26.2211 Br  0  0  0  0  0  0  0  0  0  0  0  0
    8.0572   12.8662   24.6329 C   0  0  0  0  0  0  0  0  0  0  0  0
    9.1172   13.1194   23.7592 C   0  0  0  0  0  0  0  0  0  0  0  0
    9.3148   14.3955   23.2818 O   0  0  0  0  0  0  0  0  0  0  0  0
   10.4944   14.5584   22.4623 C   0  0  2  0  0  0  0  0  0  0  0  0
   11.7512   14.4570   23.3408 C   0  0  0  0  0  0  0  0  0  0  0  0
   12.7530   15.4731   22.7850 C   0  0  0  0  0  0  0  0  0  0  0  0
   11.9671   16.3460   21.9270 N   0  0  0  0  0  0  0  0  0  0  0  0
   12.5268   17.4056   21.1121 C   0  0  0  0  0  0  0  0  0  0  0  0
   12.6224   17.1575   19.6105 C   0  0  0  0  0  0  0  0  0  0  0  0
   14.1200   17.4210   19.6309 C   0  0  0  0  0  0  0  0  0  0  0  0
   14.0495   17.5647   21.1467 C   0  0  0  0  0  0  0  0  0  0  0  0
   10.6756   15.8995   21.7615 C   0  0  0  0  0  0  0  0  0  0  0  0
    9.8876   16.4163   20.9704 O   0  0  0  0  0  0  0  0  0  0  0  0
    9.9242   12.0472   23.3509 C   0  0  0  0  0  0  0  0  0  0  0  0
  1  2  1  0
  2  3  2  0
  2  4  1  0
  4  5  2  0
  5  6  1  0
  6  7  1  0
  6  8  2  0
  8  9  1  0
  9 10  1  0
 11 10  1  1
 11 12  1  0
 12 13  1  0
 13 14  1  0
 14 15  1  0
 15 16  1  0
 16 17  1  0
 17 18  1  0
 14 19  1  0
 19 20  2  0
  9 21  2  0
 21  4  1  0
 19 11  1  0
 18 15  1  0
M  END
>  <cnnaffinity>  (46) 
-5.50758

>  <cnnaffinityIC50>  (46) 
3107.56341567737 nanomolar

>  <smiles>  (46) 
NC(=O)C1=CC(Br)=CC(OC2CCN(C3CCC3)C2=O)=C1 Z5026145729

>  <ref_pdb>  (46) 
Ax0528a

>  <ref_mols>  (46) 
Ax0528a,Ax0556a

>  <rationale>  (46) 
Enamine real space elaborations around a merge of x0528 and x0556.

>  <original SMILES>  (46) 
NC(=O)C1=CC(Br)=CC(OC2CCN(C3CCC3)C2=O)=C1

$$$$
Z2374414833
     RDKit          3D

 23 24  0  0  0  0  0  0  0  0999 V2000
    6.0130   11.3438   27.3317 C   0  0  0  0  0  0  0  0  0  0  0  0
    6.7036   12.3042   26.3646 C   0  0  0  0  0  0  0  0  0  0  0  0
    7.7854   11.6437   25.5041 C   0  0  0  0  0  0  0  0  0  0  0  0
    8.2872   12.5920   24.4088 C   0  0  0  0  0  0  0  0  0  0  0  0
    9.6092   13.6996   24.9401 S   0  0  0  0  0  6  0  0  0  0  0  0
    9.6003   14.8264   24.0231 O   0  0  0  0  0  0  0  0  0  0  0  0
    9.4326   13.8942   26.3730 O   0  0  0  0  0  0  0  0  0  0  0  0
   11.0743   12.8900   24.7851 N   0  0  0  0  0  0  0  0  0  0  0  0
   11.9628   13.0764   25.9393 C   0  0  0  0  0  0  0  0  0  0  0  0
   13.4259   12.9070   25.5411 C   0  0  0  0  0  0  0  0  0  0  0  0
   13.5986   11.8975   24.3864 C   0  0  0  0  0  0  0  0  0  0  0  0
   14.9953   11.3346   24.5002 C   0  0  0  0  0  0  0  0  0  0  0  0
   15.9616   11.8093   23.9494 O   0  0  0  0  0  0  0  0  0  0  0  0
   15.0786   10.2996   25.3653 O   0  0  0  0  0  0  0  0  0  0  0  0
   16.4121    9.8064   25.5916 C   0  0  0  0  0  0  0  0  0  0  0  0
   17.2333   10.6309   26.5954 C   0  0  2  0  0  0  0  0  0  0  0  0
   18.6700   10.0978   26.6139 C   0  0  0  0  0  0  0  0  0  0  0  0
   16.5914   10.7556   27.9817 C   0  0  0  0  0  0  0  0  0  0  0  0
   17.2437   11.8099   28.9160 C   0  0  0  0  0  0  0  0  0  0  0  0
   17.5020   10.7208   29.9829 C   0  0  0  0  0  0  0  0  0  0  0  0
   16.8320    9.6699   29.0707 C   0  0  0  0  0  0  0  0  0  0  0  0
   12.4727   10.8678   24.3835 C   0  0  0  0  0  0  0  0  0  0  0  0
   11.1309   11.5676   24.1350 C   0  0  0  0  0  0  0  0  0  0  0  0
  1  2  1  0
  2  3  1  0
  3  4  1  0
  4  5  1  0
  5  6  2  0
  5  7  2  0
  5  8  1  0
  8  9  1  0
  9 10  1  0
 10 11  1  0
 11 12  1  0
 12 13  2  0
 12 14  1  0
 14 15  1  0
 15 16  1  0
 16 17  1  1
 16 18  1  0
 18 19  1  0
 19 20  1  0
 20 21  1  0
 11 22  1  0
 22 23  1  0
 23  8  1  0
 21 18  1  0
M  END
>  <cnnaffinity>  (47) 
-5.62062

>  <cnnaffinityIC50>  (47) 
2395.4107818365896 nanomolar

>  <smiles>  (47) 
CCCCS(=O)(=O)N1CCC(C(=O)OCC(C)C2CCC2)CC1 Z2374414833

>  <ref_pdb>  (47) 
Ax0875a

>  <ref_mols>  (47) 
Ax0875a

>  <rationale>  (47) 
Enamine real space elaborations around x0875.

>  <original SMILES>  (47) 
CCCCS(=O)(=O)N1CCC(C(=O)OCC(C)C2CCC2)CC1

$$$$
Z2143520179
     RDKit          3D

 23 24  0  0  0  0  0  0  0  0999 V2000
   17.6020    9.1442   26.1573 C   0  0  0  0  0  0  0  0  0  0  0  0
   16.8652    9.6203   24.9274 C   0  0  0  0  0  0  0  0  0  0  0  0
   15.4948    9.8793   25.2922 O   0  0  0  0  0  0  0  0  0  0  0  0
   14.9308   10.9631   24.7262 C   0  0  0  0  0  0  0  0  0  0  0  0
   15.4376   11.5865   23.8230 O   0  0  0  0  0  0  0  0  0  0  0  0
   13.6105   11.3139   25.3758 C   0  0  0  0  0  0  0  0  0  0  0  0
   13.4850   12.8339   25.4728 C   0  0  0  0  0  0  0  0  0  0  0  0
   12.1714   13.1989   26.1356 C   0  0  0  0  0  0  0  0  0  0  0  0
   11.0274   12.5640   25.4547 N   0  0  0  0  0  0  0  0  0  0  0  0
    9.7189   13.6105   25.3754 S   0  0  0  0  0  6  0  0  0  0  0  0
   10.0187   14.7159   24.4796 O   0  0  0  0  0  0  0  0  0  0  0  0
    9.2397   13.8715   26.7194 O   0  0  0  0  0  0  0  0  0  0  0  0
    8.5729   12.5974   24.6886 N   0  0  0  0  0  0  0  0  0  0  0  0
    7.8834   13.0209   23.5390 C   0  0  0  0  0  0  0  0  0  0  0  0
    6.5748   12.8896   23.4894 N   0  0  0  0  0  0  0  0  0  0  0  0
    6.2346   13.2597   22.2378 N   0  0  0  0  0  0  0  0  0  0  0  0
    4.8525   13.2962   21.8197 C   0  0  0  0  0  0  0  0  0  0  0  0
    7.3054   13.5482   21.4906 C   0  0  0  0  0  0  0  0  0  0  0  0
    8.4258   13.4497   22.2965 C   0  0  0  0  0  0  0  0  0  0  0  0
    9.7493   13.7433   21.8660 C   0  0  0  0  0  0  0  0  0  0  0  0
   10.7961   14.0117   21.4461 N   0  0  0  0  0  0  0  0  0  0  0  0
   11.3817   11.7785   24.2527 C   0  0  0  0  0  0  0  0  0  0  0  0
   12.4018   10.6990   24.6227 C   0  0  0  0  0  0  0  0  0  0  0  0
  1  2  1  0
  2  3  1  0
  3  4  1  0
  4  5  2  0
  4  6  1  0
  6  7  1  0
  7  8  1  0
  8  9  1  0
  9 10  1  0
 10 11  2  0
 10 12  2  0
 10 13  1  0
 13 14  1  0
 14 15  2  0
 15 16  1  0
 16 17  1  0
 16 18  1  0
 18 19  2  0
 19 20  1  0
 20 21  3  0
  9 22  1  0
 22 23  1  0
 23  6  1  0
 19 14  1  0
M  END
>  <cnnaffinity>  (48) 
-5.618

>  <cnnaffinityIC50>  (48) 
2409.905428686593 nanomolar

>  <smiles>  (48) 
CCOC(=O)C1CCN(S(=O)(=O)NC2=NN(C)C=C2C#N)CC1 Z2143520179

>  <ref_pdb>  (48) 
Ax0875a

>  <ref_mols>  (48) 
Ax0875a

>  <rationale>  (48) 
Enamine real space elaborations around x0875.

>  <original SMILES>  (48) 
CCOC(=O)C1CCN(S(=O)(=O)NC2=NN(C)C=C2C#N)CC1

$$$$
Z3821337814
     RDKit          3D

 23 25  0  0  0  0  0  0  0  0999 V2000
   17.4294   10.7986   26.4289 C   0  0  0  0  0  0  0  0  0  0  0  0
   16.1370   11.4035   26.4375 O   0  0  0  0  0  0  0  0  0  0  0  0
   15.2198   10.7777   25.6850 C   0  0  0  0  0  0  0  0  0  0  0  0
   15.4679    9.7814   25.0457 O   0  0  0  0  0  0  0  0  0  0  0  0
   13.8497   11.4082   25.8163 C   0  0  1  0  0  0  0  0  0  0  0  0
   13.8057   12.9260   25.8138 C   0  0  0  0  0  0  0  0  0  0  0  0
   12.3517   13.3112   26.0262 C   0  0  0  0  0  0  0  0  0  0  0  0
   11.5207   12.9082   24.8734 N   0  0  0  0  0  0  0  0  0  0  0  0
   10.0228   13.7259   24.9491 S   0  0  0  0  0  6  0  0  0  0  0  0
   10.1903   15.0304   24.3404 O   0  0  0  0  0  0  0  0  0  0  0  0
    9.5190   13.6381   26.3166 O   0  0  0  0  0  0  0  0  0  0  0  0
    9.0628   12.7367   23.9395 N   0  0  0  0  0  0  0  0  0  0  0  0
    7.4249   12.4449   24.2497 S   0  0  0  0  0  6  0  0  0  0  0  0
    7.0071   11.1000   24.6491 O   0  0  0  0  0  0  0  0  0  0  0  0
    6.8473   13.1258   22.6773 C   0  0  0  0  0  0  0  0  0  0  0  0
    7.1402   14.6100   22.8617 C   0  0  0  0  0  0  0  0  0  0  0  0
    6.5754   14.9830   24.2451 C   0  0  0  0  0  0  0  0  0  0  0  0
    6.7087   13.7701   25.1864 C   0  0  0  0  0  0  0  0  0  0  0  0
   11.5407   11.4636   24.5505 C   0  0  0  0  0  0  0  0  0  0  0  0
   11.0020   11.0023   23.1622 C   0  0  0  0  0  0  0  0  0  0  0  0
   10.0076   10.0442   23.8485 C   0  0  0  0  0  0  0  0  0  0  0  0
   10.4617   10.5761   25.2219 C   0  0  0  0  0  0  0  0  0  0  0  0
   12.9564   10.8736   24.7031 C   0  0  0  0  0  0  0  0  0  0  0  0
  1  2  1  0
  2  3  1  0
  3  4  2  0
  5  3  1  6
  5  6  1  0
  6  7  1  0
  7  8  1  0
  8  9  1  0
  9 10  2  0
  9 11  2  0
  9 12  1  0
 12 13  2  0
 13 14  2  0
 13 15  1  0
 15 16  1  0
 16 17  1  0
 17 18  1  0
  8 19  1  0
 19 20  1  0
 20 21  1  0
 21 22  1  0
 19 23  1  0
 23  5  1  0
 18 13  1  0
 22 19  1  0
M  END
>  <cnnaffinity>  (49) 
-5.61559

>  <cnnaffinityIC50>  (49) 
2423.315722356725 nanomolar

>  <smiles>  (49) 
COC(=O)C1CCN(S(=O)(=O)N=S2(=O)CCCC2)C2(CCC2)C1 Z3821337814

>  <ref_pdb>  (49) 
Ax0875a

>  <ref_mols>  (49) 
Ax0875a

>  <rationale>  (49) 
Enamine real space elaborations around x0875.

>  <original SMILES>  (49) 
COC(=O)C1CCN(S(=O)(=O)N=S2(=O)CCCC2)C2(CCC2)C1

$$$$
Z4574452314
     RDKit          3D

 23 24  0  0  0  0  0  0  0  0999 V2000
    7.3825   14.5702   22.6648 C   0  0  0  0  0  0  0  0  0  0  0  0
    7.7408   14.8634   24.1157 C   0  0  0  0  0  0  0  0  0  0  0  0
    7.9576   13.3686   25.1620 S   0  0  0  0  0  6  0  0  0  0  0  0
    8.1922   13.5700   26.5945 O   0  0  0  0  0  0  0  0  0  0  0  0
    6.5161   12.5180   24.7950 C   0  0  0  0  0  0  0  0  0  0  0  0
    5.2403   13.1445   25.0437 C   0  0  0  0  0  0  0  0  0  0  0  0
    9.2024   12.5673   24.3027 N   0  0  0  0  0  0  0  0  0  0  0  0
   10.7351   13.2092   23.9076 S   0  0  0  0  0  6  0  0  0  0  0  0
   10.9363   12.9427   22.4931 O   0  0  0  0  0  0  0  0  0  0  0  0
   10.8054   14.5741   24.4053 O   0  0  0  0  0  0  0  0  0  0  0  0
   11.7895   12.3161   24.8340 N   0  0  0  0  0  0  0  0  0  0  0  0
   12.8130   13.0929   25.5513 C   0  0  0  0  0  0  0  0  0  0  0  0
   14.2106   12.5447   25.3200 C   0  0  0  0  0  0  0  0  0  0  0  0
   14.2331   11.1052   25.8123 C   0  0  2  0  0  0  0  0  0  0  0  0
   15.6420   10.5246   25.8114 C   0  0  0  0  0  0  0  0  0  0  0  0
   16.0214    9.5420   25.2186 O   0  0  0  0  0  0  0  0  0  0  0  0
   16.4476   11.2527   26.6060 O   0  0  0  0  0  0  0  0  0  0  0  0
   17.8013   10.8119   26.7072 C   0  0  0  0  0  0  0  0  0  0  0  0
   13.2783   10.2343   25.0001 C   0  0  0  0  0  0  0  0  0  0  0  0
   12.0622   10.9516   24.3575 C   0  0  1  0  0  0  0  0  0  0  0  0
   10.8208   10.0926   24.4783 C   0  0  0  0  0  0  0  0  0  0  0  0
   10.8712    8.7014   23.9098 C   0  0  0  0  0  0  0  0  0  0  0  0
   10.0792    9.7740   23.2161 C   0  0  0  0  0  0  0  0  0  0  0  0
  1  2  1  0
  2  3  1  0
  3  4  2  0
  3  5  1  0
  5  6  1  0
  3  7  2  0
  7  8  1  0
  8  9  2  0
  8 10  2  0
  8 11  1  0
 11 12  1  0
 12 13  1  0
 13 14  1  0
 14 15  1  6
 15 16  2  0
 15 17  1  0
 17 18  1  0
 14 19  1  0
 19 20  1  0
 20 21  1  1
 21 22  1  0
 22 23  1  0
 20 11  1  0
 23 21  1  0
M  END
>  <cnnaffinity>  (50) 
-5.6061

>  <cnnaffinityIC50>  (50) 
2476.8516757935477 nanomolar

>  <smiles>  (50) 
CCS(=O)(CC)=NS(=O)(=O)N1CC[C@H](C(=O)OC)C[C@H]1C1CC1 Z4574452314

>  <ref_pdb>  (50) 
Ax0875a

>  <ref_mols>  (50) 
Ax0875a

>  <rationale>  (50) 
Enamine real space elaborations around x0875.

>  <original SMILES>  (50) 
CCS(=O)(CC)=NS(=O)(=O)N1CC[C@H](C(=O)OC)C[C@H]1C1CC1

$$$$
Z4537887115
     RDKit          3D

 22 24  0  0  0  0  0  0  0  0999 V2000
   16.0410   11.8663   23.9277 O   0  0  0  0  0  0  0  0  0  0  0  0
   15.3540   11.1475   24.6074 C   0  0  0  0  0  0  0  0  0  0  0  0
   15.6571    9.8466   24.8244 O   0  0  0  0  0  0  0  0  0  0  0  0
   14.1129   11.5470   25.3590 C   0  0  1  0  0  0  0  0  0  0  0  0
   13.8770   13.0503   25.3701 C   0  0  0  0  0  0  0  0  0  0  0  0
   12.6891   13.2422   26.2934 C   0  0  0  0  0  0  0  0  0  0  0  0
   11.4517   12.6950   25.7018 N   0  0  0  0  0  0  0  0  0  0  0  0
   10.4396   14.0000   25.3277 S   0  0  0  0  0  6  0  0  0  0  0  0
   11.0394   14.7587   24.2372 O   0  0  0  0  0  0  0  0  0  0  0  0
   10.2267   14.6106   26.6300 O   0  0  0  0  0  0  0  0  0  0  0  0
    8.8585   13.4465   24.7383 C   0  0  0  0  0  0  0  0  0  0  0  0
    8.3973   13.5222   23.4469 C   0  0  0  0  0  0  0  0  0  0  0  0
    9.3318   13.8380   22.0438 Cl  0  0  0  0  0  0  0  0  0  0  0  0
    6.9987   13.2281   23.3545 C   0  0  0  0  0  0  0  0  0  0  0  0
    6.1143   13.2584   21.8741 Cl  0  0  0  0  0  0  0  0  0  0  0  0
    6.4444   12.9315   24.5604 C   0  0  0  0  0  0  0  0  0  0  0  0
    7.5909   13.0406   25.8323 S   0  0  0  0  0  0  0  0  0  0  0  0
   11.5755   11.5961   24.7237 C   0  0  2  0  0  0  0  0  0  0  0  0
   10.3887   10.6754   24.9287 C   0  0  0  0  0  0  0  0  0  0  0  0
   10.3167    9.3200   24.2784 C   0  0  0  0  0  0  0  0  0  0  0  0
    9.3936   10.4172   23.8384 C   0  0  0  0  0  0  0  0  0  0  0  0
   12.8761   10.7719   24.8709 C   0  0  0  0  0  0  0  0  0  0  0  0
  1  2  2  0
  2  3  1  0
  4  2  1  6
  4  5  1  0
  5  6  1  0
  6  7  1  0
  7  8  1  0
  8  9  2  0
  8 10  2  0
  8 11  1  0
 11 12  2  0
 12 13  1  0
 12 14  1  0
 14 15  1  0
 14 16  2  0
 16 17  1  0
  7 18  1  0
 18 19  1  1
 19 20  1  0
 20 21  1  0
 18 22  1  0
 22  4  1  0
 17 11  1  0
 21 19  1  0
M  END
>  <cnnaffinity>  (51) 
-5.60298

>  <cnnaffinityIC50>  (51) 
2494.709609920841 nanomolar

>  <smiles>  (51) 
O=C(O)C1CCN(S(=O)(=O)C2=C(Cl)C(Cl)=CS2)C(C2CC2)C1 Z4537887115

>  <ref_pdb>  (51) 
Ax0875a

>  <ref_mols>  (51) 
Ax0875a

>  <rationale>  (51) 
Enamine real space elaborations around x0875.

>  <original SMILES>  (51) 
O=C(O)C1CCN(S(=O)(=O)C2=C(Cl)C(Cl)=CS2)C(C2CC2)C1

$$$$
Z4272177918
     RDKit          3D

 23 25  0  0  0  0  0  0  0  0999 V2000
   16.1905    9.6515   25.2171 C   0  0  0  0  0  0  0  0  0  0  0  0
   14.8835   10.1471   24.9132 O   0  0  0  0  0  0  0  0  0  0  0  0
   14.8192   11.3617   24.3294 C   0  0  0  0  0  0  0  0  0  0  0  0
   15.7890   11.9556   23.9289 O   0  0  0  0  0  0  0  0  0  0  0  0
   13.3910   11.9175   24.3466 C   0  0  0  0  0  0  0  0  0  0  0  0
   13.1501   12.7221   23.1290 C   0  0  0  0  0  0  0  0  0  0  0  0
   12.8388   13.2998   22.1759 N   0  0  0  0  0  0  0  0  0  0  0  0
   13.2812   12.8229   25.6115 C   0  0  0  0  0  0  0  0  0  0  0  0
   11.8256   13.0538   26.0171 C   0  0  0  0  0  0  0  0  0  0  0  0
   10.9401   12.7969   24.8763 N   0  0  0  0  0  0  0  0  0  0  0  0
    9.5310   13.7082   24.9167 S   0  0  0  0  0  6  0  0  0  0  0  0
    9.7678   14.9356   24.1760 O   0  0  0  0  0  0  0  0  0  0  0  0
    9.1147   13.7525   26.3107 O   0  0  0  0  0  0  0  0  0  0  0  0
    8.2654   12.7801   24.0291 C   0  0  0  0  0  0  0  0  0  0  0  0
    7.3312   11.9103   24.8725 C   0  0  1  0  0  0  0  0  0  0  0  0
    7.7798   11.1598   26.1595 C   0  0  0  0  0  0  0  0  0  0  0  0
    6.8566   12.0582   27.0203 C   0  0  2  0  0  0  0  0  0  0  0  0
    5.8201   11.4625   27.9432 C   0  0  0  0  0  0  0  0  0  0  0  0
    6.2047   10.4715   28.9991 C   0  0  0  0  0  0  0  0  0  0  0  0
    5.3181   10.0496   27.8541 C   0  0  0  0  0  0  0  0  0  0  0  0
    6.2955   12.6813   25.7263 C   0  0  0  0  0  0  0  0  0  0  0  0
   10.9345   11.4232   24.3475 C   0  0  0  0  0  0  0  0  0  0  0  0
   12.3289   10.8063   24.4147 C   0  0  0  0  0  0  0  0  0  0  0  0
  1  2  1  0
  2  3  1  0
  3  4  2  0
  3  5  1  0
  5  6  1  0
  6  7  3  0
  5  8  1  0
  8  9  1  0
  9 10  1  0
 10 11  1  0
 11 12  2  0
 11 13  2  0
 11 14  1  0
 15 14  1  1
 15 16  1  0
 16 17  1  0
 17 18  1  6
 18 19  1  0
 19 20  1  0
 17 21  1  0
 10 22  1  0
 22 23  1  0
 23  5  1  0
 21 15  1  0
 20 18  1  0
M  END
>  <cnnaffinity>  (52) 
-5.57109

>  <cnnaffinityIC50>  (52) 
2684.7880122479755 nanomolar

>  <smiles>  (52) 
COC(=O)C1(C#N)CCN(S(=O)(=O)CC2CC(C3CC3)C2)CC1 Z4272177918

>  <ref_pdb>  (52) 
Ax0875a

>  <ref_mols>  (52) 
Ax0875a

>  <rationale>  (52) 
Enamine real space elaborations around x0875.

>  <original SMILES>  (52) 
COC(=O)C1(C#N)CCN(S(=O)(=O)CC2CC(C3CC3)C2)CC1

$$$$
Z4574452147
     RDKit          3D

 23 24  0  0  0  0  0  0  0  0999 V2000
    3.6091   13.1033   21.3006 C   0  0  0  0  0  0  0  0  0  0  0  0
    4.5501   13.8755   22.2209 C   0  0  0  0  0  0  0  0  0  0  0  0
    6.0226   13.4979   22.0436 C   0  0  0  0  0  0  0  0  0  0  0  0
    6.9973   14.4292   22.7665 C   0  0  0  0  0  0  0  0  0  0  0  0
    6.8167   14.5289   24.2813 C   0  0  0  0  0  0  0  0  0  0  0  0
    6.9781   13.2159   25.0553 C   0  0  0  0  0  0  0  0  0  0  0  0
    8.3094   12.4801   24.8650 C   0  0  0  0  0  0  0  0  0  0  0  0
    9.6946   13.4470   25.4745 S   0  0  0  0  0  6  0  0  0  0  0  0
   10.0663   14.3668   24.3988 O   0  0  0  0  0  0  0  0  0  0  0  0
    9.2689   13.9633   26.7645 O   0  0  0  0  0  0  0  0  0  0  0  0
   11.0654   12.4637   25.7972 N   0  0  0  0  0  0  0  0  0  0  0  0
   12.1157   13.3825   26.2983 C   0  0  0  0  0  0  0  0  0  0  0  0
   13.5207   13.1261   25.7636 C   0  0  0  0  0  0  0  0  0  0  0  0
   13.8030   11.6358   25.8632 C   0  0  2  0  0  0  0  0  0  0  0  0
   15.2454   11.2920   25.5229 C   0  0  0  0  0  0  0  0  0  0  0  0
   15.6347   10.9301   24.4389 O   0  0  0  0  0  0  0  0  0  0  0  0
   16.0500   11.4371   26.5954 O   0  0  0  0  0  0  0  0  0  0  0  0
   17.4177   11.0402   26.4525 C   0  0  0  0  0  0  0  0  0  0  0  0
   12.8623   10.8956   24.9161 C   0  0  0  0  0  0  0  0  0  0  0  0
   11.4263   11.4721   24.7587 C   0  0  1  0  0  0  0  0  0  0  0  0
   10.4128   10.3426   24.7868 C   0  0  0  0  0  0  0  0  0  0  0  0
    9.6730    9.9632   23.5361 C   0  0  0  0  0  0  0  0  0  0  0  0
   10.6931    9.0286   24.1161 C   0  0  0  0  0  0  0  0  0  0  0  0
  1  2  1  0
  2  3  1  0
  3  4  1  0
  4  5  1  0
  5  6  1  0
  6  7  1  0
  7  8  1  0
  8  9  2  0
  8 10  2  0
  8 11  1  0
 11 12  1  0
 12 13  1  0
 13 14  1  0
 14 15  1  6
 15 16  2  0
 15 17  1  0
 17 18  1  0
 14 19  1  0
 19 20  1  0
 20 21  1  1
 21 22  1  0
 22 23  1  0
 20 11  1  0
 23 21  1  0
M  END
>  <cnnaffinity>  (53) 
-5.53394

>  <cnnaffinityIC50>  (53) 
2924.556392331515 nanomolar

>  <smiles>  (53) 
CCCCCCCS(=O)(=O)N1CC[C@H](C(=O)OC)C[C@H]1C1CC1 Z4574452147

>  <ref_pdb>  (53) 
Ax0875a

>  <ref_mols>  (53) 
Ax0875a

>  <rationale>  (53) 
Enamine real space elaborations around x0875.

>  <original SMILES>  (53) 
CCCCCCCS(=O)(=O)N1CC[C@H](C(=O)OC)C[C@H]1C1CC1

$$$$
Z4537886173
     RDKit          3D

 22 24  0  0  0  0  0  0  0  0999 V2000
    9.3686   13.9851   22.4790 C   0  0  0  0  0  0  0  0  0  0  0  0
    8.5866   13.3798   23.5600 N   0  0  0  0  0  0  0  0  0  0  0  0
    7.3717   12.8091   23.3628 N   0  0  0  0  0  0  0  0  0  0  0  0
    6.8669   12.5775   24.5535 C   0  0  0  0  0  0  0  0  0  0  0  0
    7.8070   12.9784   25.5789 C   0  0  0  0  0  0  0  0  0  0  0  0
    7.5705   12.8832   27.4678 Br  0  0  0  0  0  0  0  0  0  0  0  0
    8.8820   13.4687   24.9023 C   0  0  0  0  0  0  0  0  0  0  0  0
   10.4293   14.2232   25.4487 S   0  0  0  0  0  6  0  0  0  0  0  0
   10.7838   15.2699   24.4811 O   0  0  0  0  0  0  0  0  0  0  0  0
   10.4176   14.7157   26.8360 O   0  0  0  0  0  0  0  0  0  0  0  0
   11.6507   13.0026   25.3224 N   0  0  0  0  0  0  0  0  0  0  0  0
   12.8100   13.0931   26.2170 C   0  0  0  0  0  0  0  0  0  0  0  0
   14.0814   12.9512   25.3761 C   0  0  0  0  0  0  0  0  0  0  0  0
   14.0471   11.7337   24.3999 C   0  0  1  0  0  0  0  0  0  0  0  0
   15.2535   10.7900   24.6023 C   0  0  0  0  0  0  0  0  0  0  0  0
   16.3759   11.2613   24.5825 O   0  0  0  0  0  0  0  0  0  0  0  0
   15.0187    9.4758   24.8383 O   0  0  0  0  0  0  0  0  0  0  0  0
   12.7080   10.9464   24.5089 C   0  0  0  0  0  0  0  0  0  0  0  0
   11.4427   11.8250   24.4782 C   0  0  1  0  0  0  0  0  0  0  0  0
   10.2349   11.0422   25.0248 C   0  0  0  0  0  0  0  0  0  0  0  0
    9.9727    9.6168   24.5224 C   0  0  0  0  0  0  0  0  0  0  0  0
    9.0687   10.7530   24.0769 C   0  0  0  0  0  0  0  0  0  0  0  0
  1  2  1  0
  2  3  1  0
  3  4  2  0
  4  5  1  0
  5  6  1  0
  5  7  2  0
  7  8  1  0
  8  9  2  0
  8 10  2  0
  8 11  1  0
 11 12  1  0
 12 13  1  0
 13 14  1  0
 14 15  1  1
 15 16  2  0
 15 17  1  0
 14 18  1  0
 18 19  1  0
 19 20  1  1
 20 21  1  0
 21 22  1  0
  7  2  1  0
 19 11  1  0
 22 20  1  0
M  END
>  <cnnaffinity>  (54) 
-5.52826

>  <cnnaffinityIC50>  (54) 
2963.0569588226385 nanomolar

>  <smiles>  (54) 
CN1N=CC(Br)=C1S(=O)(=O)N1CCC(C(=O)O)CC1C1CC1 Z4537886173

>  <ref_pdb>  (54) 
Ax0875a

>  <ref_mols>  (54) 
Ax0875a

>  <rationale>  (54) 
Enamine real space elaborations around x0875.

>  <original SMILES>  (54) 
CN1N=CC(Br)=C1S(=O)(=O)N1CCC(C(=O)O)CC1C1CC1

$$$$
Z3798133992
     RDKit          3D

 23 26  0  0  0  0  0  0  0  0999 V2000
   15.3259   10.0942   24.6647 O   0  0  0  0  0  0  0  0  0  0  0  0
   15.0925   11.2386   24.3508 C   0  0  0  0  0  0  0  0  0  0  0  0
   16.0571   12.1009   23.9773 O   0  0  0  0  0  0  0  0  0  0  0  0
   13.7402   11.9047   24.3827 C   0  0  2  0  0  0  0  0  0  0  0  0
   13.7077   12.8949   25.5650 C   0  0  0  0  0  0  0  0  0  0  0  0
   12.2951   13.0686   26.1412 C   0  0  0  0  0  0  0  0  0  0  0  0
   11.2229   12.7774   25.1849 N   0  0  0  0  0  0  0  0  0  0  0  0
   10.0296   13.9633   25.1617 S   0  0  0  0  0  6  0  0  0  0  0  0
   10.4741   14.9920   24.2251 O   0  0  0  0  0  0  0  0  0  0  0  0
    9.8515   14.2457   26.5787 O   0  0  0  0  0  0  0  0  0  0  0  0
    8.4048   13.4860   24.5259 C   0  0  0  0  0  0  0  0  0  0  0  0
    7.4010   12.8614   25.2249 C   0  0  0  0  0  0  0  0  0  0  0  0
    7.5511   12.2320   26.5604 C   0  0  0  0  0  0  0  0  0  0  0  0
    6.4523   11.3921   27.1484 C   0  0  0  0  0  0  0  0  0  0  0  0
    6.7888   12.7158   27.7622 C   0  0  0  0  0  0  0  0  0  0  0  0
    6.1510   12.9328   24.5133 C   0  0  0  0  0  0  0  0  0  0  0  0
    6.2297   13.6205   23.3471 C   0  0  0  0  0  0  0  0  0  0  0  0
    7.8277   14.1761   23.0446 S   0  0  0  0  0  0  0  0  0  0  0  0
   11.2615   11.5727   24.3709 C   0  0  0  0  0  0  0  0  0  0  0  0
   10.8235   11.7844   22.8997 C   0  0  0  0  0  0  0  0  0  0  0  0
    9.7232   10.7133   23.0837 C   0  0  0  0  0  0  0  0  0  0  0  0
   10.1214   10.5390   24.5680 C   0  0  0  0  0  0  0  0  0  0  0  0
   12.6195   10.8841   24.4799 C   0  0  0  0  0  0  0  0  0  0  0  0
  1  2  2  0
  2  3  1  0
  4  2  1  1
  4  5  1  0
  5  6  1  0
  6  7  1  0
  7  8  1  0
  8  9  2  0
  8 10  2  0
  8 11  1  0
 11 12  2  0
 12 13  1  0
 13 14  1  0
 14 15  1  0
 12 16  1  0
 16 17  2  0
 17 18  1  0
  7 19  1  0
 19 20  1  0
 20 21  1  0
 21 22  1  0
 19 23  1  0
 23  4  1  0
 18 11  1  0
 22 19  1  0
 15 13  1  0
M  END
>  <cnnaffinity>  (55) 
-5.52205

>  <cnnaffinityIC50>  (55) 
3005.7302352257116 nanomolar

>  <smiles>  (55) 
O=C(O)C1CCN(S(=O)(=O)C2=C(C3CC3)C=CS2)C2(CCC2)C1 Z3798133992

>  <ref_pdb>  (55) 
Ax0875a

>  <ref_mols>  (55) 
Ax0875a

>  <rationale>  (55) 
Enamine real space elaborations around x0875.

>  <original SMILES>  (55) 
O=C(O)C1CCN(S(=O)(=O)C2=C(C3CC3)C=CS2)C2(CCC2)C1

$$$$
Z4278740481
     RDKit          3D

 23 25  0  0  0  0  0  0  0  0999 V2000
   16.5651    9.7977   25.2559 C   0  0  0  0  0  0  0  0  0  0  0  0
   15.2258   10.2559   25.0755 O   0  0  0  0  0  0  0  0  0  0  0  0
   15.1139   11.4180   24.4001 C   0  0  0  0  0  0  0  0  0  0  0  0
   16.0662   11.9960   23.9344 O   0  0  0  0  0  0  0  0  0  0  0  0
   13.7033   11.9472   24.3756 C   0  0  2  0  0  0  0  0  0  0  0  0
   13.5439   12.9108   25.5669 C   0  0  0  0  0  0  0  0  0  0  0  0
   12.0755   13.0693   25.9616 C   0  0  0  0  0  0  0  0  0  0  0  0
   11.1872   12.7993   24.8245 N   0  0  0  0  0  0  0  0  0  0  0  0
    9.8159   13.7840   24.8847 S   0  0  0  0  0  6  0  0  0  0  0  0
   10.1303   14.9933   24.1291 O   0  0  0  0  0  0  0  0  0  0  0  0
    9.5105   13.8510   26.3095 O   0  0  0  0  0  0  0  0  0  0  0  0
    8.2340   13.1505   24.2028 C   0  0  1  0  0  0  0  0  0  0  0  0
    7.1425   14.0467   24.7858 C   0  0  0  0  0  0  0  0  0  0  0  0
    6.5585   14.3299   23.4010 C   0  0  2  0  0  0  0  0  0  0  0  0
    5.1396   13.8187   23.3115 C   0  0  0  0  0  0  0  0  0  0  0  0
    4.5772   13.8750   21.8987 C   0  0  0  0  0  0  0  0  0  0  0  0
    4.2336   14.5259   24.3159 C   0  0  0  0  0  0  0  0  0  0  0  0
    7.7394   13.5220   22.7800 C   0  0  0  0  0  0  0  0  0  0  0  0
   11.2479   11.4706   24.2103 C   0  0  0  0  0  0  0  0  0  0  0  0
   10.1323   10.4405   24.5423 C   0  0  0  0  0  0  0  0  0  0  0  0
    9.6166   10.5403   23.0933 C   0  0  0  0  0  0  0  0  0  0  0  0
   10.7927   11.4670   22.7275 C   0  0  0  0  0  0  0  0  0  0  0  0
   12.6348   10.8697   24.4310 C   0  0  0  0  0  0  0  0  0  0  0  0
  1  2  1  0
  2  3  1  0
  3  4  2  0
  5  3  1  1
  5  6  1  0
  6  7  1  0
  7  8  1  0
  8  9  1  0
  9 10  2  0
  9 11  2  0
 12  9  1  6
 12 13  1  0
 13 14  1  0
 14 15  1  1
 15 16  1  0
 15 17  1  0
 14 18  1  0
  8 19  1  0
 19 20  1  0
 20 21  1  0
 21 22  1  0
 19 23  1  0
 23  5  1  0
 18 12  1  0
 22 19  1  0
M  END
>  <cnnaffinity>  (56) 
-5.50887

>  <cnnaffinityIC50>  (56) 
3098.3466072936976 nanomolar

>  <smiles>  (56) 
COC(=O)C1CCN(S(=O)(=O)C2CC(C(C)C)C2)C2(CCC2)C1 Z4278740481

>  <ref_pdb>  (56) 
Ax0875a

>  <ref_mols>  (56) 
Ax0875a

>  <rationale>  (56) 
Enamine real space elaborations around x0875.

>  <original SMILES>  (56) 
COC(=O)C1CCN(S(=O)(=O)C2CC(C(C)C)C2)C2(CCC2)C1

$$$$
PV-006621793102
     RDKit          3D

 27 28  0  0  0  0  0  0  0  0999 V2000
   15.6955   12.1181   24.6624 C   0  0  0  0  0  0  0  0  0  0  0  0
   14.4769   12.3472   23.9552 O   0  0  0  0  0  0  0  0  0  0  0  0
   13.4127   12.6416   24.7169 C   0  0  0  0  0  0  0  0  0  0  0  0
   13.4257   12.6240   25.9228 O   0  0  0  0  0  0  0  0  0  0  0  0
   12.2412   13.0924   23.8548 C   0  0  0  0  0  0  0  0  0  0  0  0
   10.9026   12.7908   24.4716 C   0  0  0  0  0  0  0  0  0  0  0  0
   10.2398   13.7539   25.2142 C   0  0  0  0  0  0  0  0  0  0  0  0
    9.0179   13.4869   25.8346 C   0  0  0  0  0  0  0  0  0  0  0  0
    8.2913   14.4366   26.4877 O   0  0  0  0  0  0  0  0  0  0  0  0
    8.7632   15.7603   26.4304 C   0  0  0  0  0  0  0  0  0  0  0  0
    8.4753   12.1963   25.7738 C   0  0  0  0  0  0  0  0  0  0  0  0
    7.2737   11.7965   26.5238 C   0  0  0  0  0  0  0  0  0  0  0  0
    6.8601   12.2799   27.6957 C   0  0  0  0  0  0  0  0  0  0  0  0
    7.5203   12.9774   28.8641 C   0  0  0  0  0  0  0  0  0  0  0  0
    6.3423   12.4856   29.7361 C   0  0  0  0  0  0  0  0  0  0  0  0
    6.6019   11.3648   30.7119 C   0  0  0  0  0  0  0  0  0  0  0  0
    5.7623   10.5339   30.9765 O   0  0  0  0  0  0  0  0  0  0  0  0
    7.8232   11.4270   31.2663 O   0  0  0  0  0  0  0  0  0  0  0  0
    8.1974   10.4622   32.2974 C   0  0  0  0  0  0  0  0  0  0  0  0
    9.6575   10.8104   32.5724 C   0  0  0  0  0  0  0  0  0  0  0  0
    8.0890    9.0271   31.7859 C   0  0  0  0  0  0  0  0  0  0  0  0
    7.3434   10.6822   33.5446 C   0  0  0  0  0  0  0  0  0  0  0  0
    5.6039   11.9842   28.4672 C   0  0  0  0  0  0  0  0  0  0  0  0
    9.1116   11.2419   24.9651 C   0  0  0  0  0  0  0  0  0  0  0  0
   10.3154   11.5262   24.3358 C   0  0  0  0  0  0  0  0  0  0  0  0
   11.0204   10.6537   23.5623 O   0  0  0  0  0  0  0  0  0  0  0  0
   10.4487    9.4038   23.2527 C   0  0  0  0  0  0  0  0  0  0  0  0
  1  2  1  0
  2  3  1  0
  3  4  2  0
  3  5  1  0
  5  6  1  0
  6  7  2  0
  7  8  1  0
  8  9  1  0
  9 10  1  0
  8 11  2  0
 11 12  1  0
 12 13  2  3
 13 14  1  0
 14 15  1  0
 15 16  1  0
 16 17  2  0
 16 18  1  0
 18 19  1  0
 19 20  1  0
 19 21  1  0
 19 22  1  0
 15 23  1  0
 11 24  1  0
 24 25  2  0
 25 26  1  0
 26 27  1  0
 25  6  1  0
 23 13  1  0
M  END
>  <cnnaffinity>  (57) 
-5.39439

>  <cnnaffinityIC50>  (57) 
4032.8307880526118 nanomolar

>  <smiles>  (57) 
COC(=O)CC1=CC(OC)=C(C=C2CC(C(=O)OC(C)(C)C)C2)C=C1OC PV-006621793102

>  <ref_pdb>  (57) 
Ax0310a

>  <ref_mols>  (57) 
Ax1019a

>  <rationale>  (57) 
Enamine real space elaborations around x1019.

>  <original SMILES>  (57) 
COC(=O)CC1=CC(OC)=C(C=C2CC(C(=O)OC(C)(C)C)C2)C=C1OC

$$$$
PV-005279336795
     RDKit          3D

 28 29  0  0  0  0  0  0  0  0999 V2000
   15.6814   12.1575   24.6802 C   0  0  0  0  0  0  0  0  0  0  0  0
   14.4780   12.4426   23.9671 O   0  0  0  0  0  0  0  0  0  0  0  0
   13.3896   12.6705   24.7184 C   0  0  0  0  0  0  0  0  0  0  0  0
   13.3755   12.6002   25.9226 O   0  0  0  0  0  0  0  0  0  0  0  0
   12.2216   13.1030   23.8450 C   0  0  0  0  0  0  0  0  0  0  0  0
   10.8855   12.7746   24.4451 C   0  0  0  0  0  0  0  0  0  0  0  0
   10.2314   13.7089   25.2325 C   0  0  0  0  0  0  0  0  0  0  0  0
    9.0073   13.4237   25.8371 C   0  0  0  0  0  0  0  0  0  0  0  0
    8.3379   14.3635   26.5676 O   0  0  0  0  0  0  0  0  0  0  0  0
    8.7655   15.7052   26.4778 C   0  0  0  0  0  0  0  0  0  0  0  0
    8.4475   12.1396   25.7060 C   0  0  0  0  0  0  0  0  0  0  0  0
    7.2358   11.6993   26.4199 C   0  0  0  0  0  0  0  0  0  0  0  0
    6.6608   12.2975   27.4686 C   0  0  0  0  0  0  0  0  0  0  0  0
    5.3811   11.8155   28.0702 C   0  0  0  0  0  0  0  0  0  0  0  0
    5.3142   10.3320   28.5530 C   0  0  0  0  0  0  0  0  0  0  0  0
    4.8881   10.8489   29.8433 N   0  0  0  0  0  0  0  0  0  0  0  0
    4.8566   10.2657   31.0619 C   0  0  0  0  0  0  0  0  0  0  0  0
    4.7677   10.8866   32.1041 O   0  0  0  0  0  0  0  0  0  0  0  0
    4.9159    8.9257   30.9147 O   0  0  0  0  0  0  0  0  0  0  0  0
    4.7663    8.0844   32.0905 C   0  0  0  0  0  0  0  0  0  0  0  0
    3.4009    8.3040   32.7305 C   0  0  0  0  0  0  0  0  0  0  0  0
    5.9111    8.3233   33.0649 C   0  0  0  0  0  0  0  0  0  0  0  0
    4.8528    6.6750   31.5293 C   0  0  0  0  0  0  0  0  0  0  0  0
    5.1399   12.2442   29.5453 C   0  0  0  0  0  0  0  0  0  0  0  0
    9.0906   11.2141   24.8680 C   0  0  0  0  0  0  0  0  0  0  0  0
   10.3057   11.5106   24.2607 C   0  0  0  0  0  0  0  0  0  0  0  0
   11.0076   10.6456   23.4734 O   0  0  0  0  0  0  0  0  0  0  0  0
   10.4520    9.3682   23.2422 C   0  0  0  0  0  0  0  0  0  0  0  0
  1  2  1  0
  2  3  1  0
  3  4  2  0
  3  5  1  0
  5  6  1  0
  6  7  2  0
  7  8  1  0
  8  9  1  0
  9 10  1  0
  8 11  2  0
 11 12  1  0
 12 13  2  3
 13 14  1  0
 14 15  1  0
 15 16  1  0
 16 17  1  0
 17 18  2  0
 17 19  1  0
 19 20  1  0
 20 21  1  0
 20 22  1  0
 20 23  1  0
 16 24  1  0
 11 25  1  0
 25 26  2  0
 26 27  1  0
 27 28  1  0
 26  6  1  0
 24 14  1  0
M  END
>  <cnnaffinity>  (58) 
-5.38624

>  <cnnaffinityIC50>  (58) 
4109.225741408156 nanomolar

>  <smiles>  (58) 
COC(=O)CC1=CC(OC)=C(C=CC2CN(C(=O)OC(C)(C)C)C2)C=C1OC PV-005279336795

>  <ref_pdb>  (58) 
Ax0310a

>  <ref_mols>  (58) 
Ax1019a

>  <rationale>  (58) 
Enamine real space elaborations around x1019.

>  <original SMILES>  (58) 
COC(=O)CC1=CC(OC)=C(C=CC2CN(C(=O)OC(C)(C)C)C2)C=C1OC

$$$$
PV-005617061841
     RDKit          3D

 28 29  0  0  0  0  0  0  0  0999 V2000
   15.6087   11.9740   24.6533 C   0  0  0  0  0  0  0  0  0  0  0  0
   14.3748   12.2098   23.9766 O   0  0  0  0  0  0  0  0  0  0  0  0
   13.3518   12.6230   24.7418 C   0  0  0  0  0  0  0  0  0  0  0  0
   13.3840   12.6803   25.9464 O   0  0  0  0  0  0  0  0  0  0  0  0
   12.1816   13.0680   23.8833 C   0  0  0  0  0  0  0  0  0  0  0  0
   10.8516   12.7836   24.5168 C   0  0  0  0  0  0  0  0  0  0  0  0
   10.1561   13.7757   25.1866 C   0  0  0  0  0  0  0  0  0  0  0  0
    8.9040   13.5185   25.7429 C   0  0  0  0  0  0  0  0  0  0  0  0
    8.1811   14.4536   26.4238 O   0  0  0  0  0  0  0  0  0  0  0  0
    8.7239   15.7509   26.4685 C   0  0  0  0  0  0  0  0  0  0  0  0
    8.3295   12.2428   25.6301 C   0  0  0  0  0  0  0  0  0  0  0  0
    6.9730   11.9749   26.1710 C   0  0  0  0  0  0  0  0  0  0  0  0
    6.7665   10.9753   27.0281 C   0  0  0  0  0  0  0  0  0  0  0  0
    5.4776   10.7796   27.7665 C   0  0  0  0  0  0  0  0  0  0  0  0
    4.6274   11.9643   27.7394 N   0  0  0  0  0  0  0  0  0  0  0  0
    3.6616   12.1519   28.6890 C   0  0  0  0  0  0  0  0  0  0  0  0
    3.0489   13.1960   28.8109 O   0  0  0  0  0  0  0  0  0  0  0  0
    3.4758   11.0444   29.4330 O   0  0  0  0  0  0  0  0  0  0  0  0
    2.4518   11.0393   30.4775 C   0  0  0  0  0  0  0  0  0  0  0  0
    2.5719    9.6319   31.0496 C   0  0  0  0  0  0  0  0  0  0  0  0
    2.7685   12.0889   31.5427 C   0  0  0  0  0  0  0  0  0  0  0  0
    1.0771   11.2652   29.8511 C   0  0  0  0  0  0  0  0  0  0  0  0
    4.9558   13.1457   26.9540 C   0  0  0  0  0  0  0  0  0  0  0  0
    5.7936   12.8063   25.7349 C   0  0  0  0  0  0  0  0  0  0  0  0
    9.0666   11.2270   25.0153 C   0  0  0  0  0  0  0  0  0  0  0  0
   10.3032   11.5007   24.4426 C   0  0  0  0  0  0  0  0  0  0  0  0
   11.0820   10.5861   23.7944 O   0  0  0  0  0  0  0  0  0  0  0  0
   10.4532    9.4416   23.2614 C   0  0  0  0  0  0  0  0  0  0  0  0
  1  2  1  0
  2  3  1  0
  3  4  2  0
  3  5  1  0
  5  6  1  0
  6  7  2  0
  7  8  1  0
  8  9  1  0
  9 10  1  0
  8 11  2  0
 11 12  1  0
 12 13  2  0
 13 14  1  0
 14 15  1  0
 15 16  1  0
 16 17  2  0
 16 18  1  0
 18 19  1  0
 19 20  1  0
 19 21  1  0
 19 22  1  0
 15 23  1  0
 23 24  1  0
 11 25  1  0
 25 26  2  0
 26 27  1  0
 27 28  1  0
 26  6  1  0
 24 12  1  0
M  END
>  <cnnaffinity>  (59) 
-5.34293

>  <cnnaffinityIC50>  (59) 
4540.147892910341 nanomolar

>  <smiles>  (59) 
COC(=O)CC1=CC(OC)=C(C2=CCN(C(=O)OC(C)(C)C)CC2)C=C1OC PV-005617061841

>  <ref_pdb>  (59) 
Ax0310a

>  <ref_mols>  (59) 
Ax1019a

>  <rationale>  (59) 
Enamine real space elaborations around x1019.

>  <original SMILES>  (59) 
COC(=O)CC1=CC(OC)=C(C2=CCN(C(=O)OC(C)(C)C)CC2)C=C1OC

$$$$
Z5058626624
     RDKit          3D

 27 29  0  0  0  0  0  0  0  0999 V2000
   15.6283   12.0007   24.6524 C   0  0  0  0  0  0  0  0  0  0  0  0
   14.3888   12.2125   23.9798 O   0  0  0  0  0  0  0  0  0  0  0  0
   13.3659   12.6212   24.7457 C   0  0  0  0  0  0  0  0  0  0  0  0
   13.3942   12.6686   25.9496 O   0  0  0  0  0  0  0  0  0  0  0  0
   12.2030   13.0714   23.8784 C   0  0  0  0  0  0  0  0  0  0  0  0
   10.8716   12.7905   24.5044 C   0  0  0  0  0  0  0  0  0  0  0  0
   10.1784   13.7830   25.1781 C   0  0  0  0  0  0  0  0  0  0  0  0
    8.9265   13.5212   25.7332 C   0  0  0  0  0  0  0  0  0  0  0  0
    8.2041   14.4480   26.4242 O   0  0  0  0  0  0  0  0  0  0  0  0
    8.7400   15.7485   26.4641 C   0  0  0  0  0  0  0  0  0  0  0  0
    8.3531   12.2475   25.6058 C   0  0  0  0  0  0  0  0  0  0  0  0
    6.9867   11.9872   26.1181 C   0  0  0  0  0  0  0  0  0  0  0  0
    6.7598   10.9850   26.9666 C   0  0  0  0  0  0  0  0  0  0  0  0
    5.4695   10.8110   27.7029 C   0  0  0  0  0  0  0  0  0  0  0  0
    4.6146   11.9931   27.6594 N   0  0  0  0  0  0  0  0  0  0  0  0
    3.6734   12.1342   28.6407 C   0  0  0  0  0  0  0  0  0  0  0  0
    3.0630   13.3260   28.7421 N   0  0  0  0  0  0  0  0  0  0  0  0
    2.1422   13.4460   29.6897 C   0  0  0  0  0  0  0  0  0  0  0  0
    1.7904   12.4065   30.5395 C   0  0  0  0  0  0  0  0  0  0  0  0
    2.4798   11.2173   30.3424 C   0  0  0  0  0  0  0  0  0  0  0  0
    3.4164   11.0614   29.4137 N   0  0  0  0  0  0  0  0  0  0  0  0
    4.9825   13.1825   26.8968 C   0  0  0  0  0  0  0  0  0  0  0  0
    5.8187   12.8339   25.6760 C   0  0  0  0  0  0  0  0  0  0  0  0
    9.0937   11.2301   24.9983 C   0  0  0  0  0  0  0  0  0  0  0  0
   10.3288   11.5071   24.4266 C   0  0  0  0  0  0  0  0  0  0  0  0
   11.1029   10.5947   23.7701 O   0  0  0  0  0  0  0  0  0  0  0  0
   10.4677    9.4425   23.2615 C   0  0  0  0  0  0  0  0  0  0  0  0
  1  2  1  0
  2  3  1  0
  3  4  2  0
  3  5  1  0
  5  6  1  0
  6  7  2  0
  7  8  1  0
  8  9  1  0
  9 10  1  0
  8 11  2  0
 11 12  1  0
 12 13  2  0
 13 14  1  0
 14 15  1  0
 15 16  1  0
 16 17  2  0
 17 18  1  0
 18 19  2  0
 19 20  1  0
 20 21  2  0
 15 22  1  0
 22 23  1  0
 11 24  1  0
 24 25  2  0
 25 26  1  0
 26 27  1  0
 25  6  1  0
 23 12  1  0
 21 16  1  0
M  END
>  <cnnaffinity>  (60) 
-5.31001

>  <cnnaffinityIC50>  (60) 
4897.675419241995 nanomolar

>  <smiles>  (60) 
COC(=O)CC1=CC(OC)=C(C2=CCN(C3=NC=CC=N3)CC2)C=C1OC Z5058626624

>  <ref_pdb>  (60) 
Ax0310a

>  <ref_mols>  (60) 
Ax1019a

>  <rationale>  (60) 
Enamine real space elaborations around x1019.

>  <original SMILES>  (60) 
COC(=O)CC1=CC(OC)=C(C2=CCN(C3=NC=CC=N3)CC2)C=C1OC

$$$$
PV-006425117631
     RDKit          3D

 25 26  0  0  0  0  0  0  0  0999 V2000
   15.7364   12.2088   24.6841 C   0  0  0  0  0  0  0  0  0  0  0  0
   14.5315   12.4640   23.9632 O   0  0  0  0  0  0  0  0  0  0  0  0
   13.4387   12.6730   24.7172 C   0  0  0  0  0  0  0  0  0  0  0  0
   13.4224   12.5888   25.9187 O   0  0  0  0  0  0  0  0  0  0  0  0
   12.2699   13.1063   23.8476 C   0  0  0  0  0  0  0  0  0  0  0  0
   10.9157   12.8260   24.4505 C   0  0  0  0  0  0  0  0  0  0  0  0
   10.1934   13.8178   25.1020 C   0  0  0  0  0  0  0  0  0  0  0  0
    8.9579   13.5577   25.6696 C   0  0  0  0  0  0  0  0  0  0  0  0
    8.2403   14.5805   26.2551 O   0  0  0  0  0  0  0  0  0  0  0  0
    8.4811   14.7199   27.6442 C   0  0  0  0  0  0  0  0  0  0  0  0
    8.4081   12.2703   25.6268 C   0  0  0  0  0  0  0  0  0  0  0  0
    7.1274   12.0421   26.3087 C   0  0  0  0  0  0  0  0  0  0  0  0
    6.6154   10.8631   26.6768 C   0  0  0  0  0  0  0  0  0  0  0  0
    5.3303   10.6773   27.3683 C   0  0  0  0  0  0  0  0  0  0  0  0
    4.9596    9.3825   27.7440 C   0  0  0  0  0  0  0  0  0  0  0  0
    3.7218    9.1274   28.3217 C   0  0  0  0  0  0  0  0  0  0  0  0
    2.8440   10.1799   28.5201 C   0  0  0  0  0  0  0  0  0  0  0  0
    1.6250    9.9629   29.0303 F   0  0  0  0  0  0  0  0  0  0  0  0
    3.2137   11.4793   28.1873 C   0  0  0  0  0  0  0  0  0  0  0  0
    2.3396   12.4739   28.4009 F   0  0  0  0  0  0  0  0  0  0  0  0
    4.4519   11.7392   27.6296 C   0  0  0  0  0  0  0  0  0  0  0  0
    9.1117   11.2640   24.9538 C   0  0  0  0  0  0  0  0  0  0  0  0
   10.3469   11.5451   24.3710 C   0  0  0  0  0  0  0  0  0  0  0  0
   11.0951   10.6302   23.6935 O   0  0  0  0  0  0  0  0  0  0  0  0
   10.4837    9.4112   23.3367 C   0  0  0  0  0  0  0  0  0  0  0  0
  1  2  1  0
  2  3  1  0
  3  4  2  0
  3  5  1  0
  5  6  1  0
  6  7  2  0
  7  8  1  0
  8  9  1  0
  9 10  1  0
  8 11  2  0
 11 12  1  0
 12 13  2  3
 13 14  1  0
 14 15  2  0
 15 16  1  0
 16 17  2  0
 17 18  1  0
 17 19  1  0
 19 20  1  0
 19 21  2  0
 11 22  1  0
 22 23  2  0
 23 24  1  0
 24 25  1  0
 23  6  1  0
 21 14  1  0
M  END
>  <cnnaffinity>  (61) 
-5.29096

>  <cnnaffinityIC50>  (61) 
5117.289653493571 nanomolar

>  <smiles>  (61) 
COC(=O)CC1=CC(OC)=C(C=CC2=CC=C(F)C(F)=C2)C=C1OC PV-006425117631

>  <ref_pdb>  (61) 
Ax0310a

>  <ref_mols>  (61) 
Ax1019a

>  <rationale>  (61) 
Enamine real space elaborations around x1019.

>  <original SMILES>  (61) 
COC(=O)CC1=CC(OC)=C(C=CC2=CC=C(F)C(F)=C2)C=C1OC

$$$$
