ver_1.2
     RDKit          2D

 14 15  0  0  0  0  0  0  0  0999 V2000
    2.7760    0.0000    0.0000 C   0  0  0  0  0  0  0  0  0  0  0  0
    1.2760    0.0000    0.0000 N   0  0  0  0  0  0  0  0  0  0  0  0
    0.3943    1.2135    0.0000 C   0  0  0  0  0  0  0  0  0  0  0  0
   -1.0323    0.7500    0.0000 N   0  0  0  0  0  0  0  0  0  0  0  0
   -1.0323   -0.7500    0.0000 C   0  0  0  0  0  0  0  0  0  0  0  0
    0.3943   -1.2135    0.0000 C   0  0  0  0  0  0  0  0  0  0  0  0
    0.7062   -2.6807    0.0000 C   0  0  0  0  0  0  0  0  0  0  0  0
    2.1328   -3.1443    0.0000 O   0  0  0  0  0  0  0  0  0  0  0  0
   -0.4086   -3.6844    0.0000 N   0  0  0  0  0  0  0  0  0  0  0  0
   -1.8351   -3.2209    0.0000 C   0  0  0  0  0  0  0  0  0  0  0  0
   -2.9499   -4.2246    0.0000 O   0  0  0  0  0  0  0  0  0  0  0  0
   -2.1470   -1.7537    0.0000 N   0  0  0  0  0  0  0  0  0  0  0  0
   -3.5736   -1.2902    0.0000 C   0  0  0  0  0  0  0  0  0  0  0  0
   -0.0967   -5.1517    0.0000 C   0  0  0  0  0  0  0  0  0  0  0  0
  1  2  1  0
  2  3  1  0
  3  4  2  0
  4  5  1  0
  5  6  2  0
  6  7  1  0
  7  8  2  0
  7  9  1  0
  9 10  1  0
 10 11  2  0
 10 12  1  0
 12 13  1  0
  9 14  1  0
  6  2  1  0
 12  5  1  0
M  END
>  <ref_url>  (1) 
https://github.com/jthorton/EV-A71-2A-elaborations/tree/main/iteration2

>  <submitter_name>  (1) 
JTHorton/DJCole

>  <submitter_institution>  (1) 
Newcastle University (UK)

>  <submitter_email>  (1) 
Josh.Horton@newcastle.ac.uk

>  <generation_date>  (1) 
2024-03-21

>  <method>  (1) 
FEGrow-Elaborations

>  <cnnaffinityIC50>  (1) 
cnnaffinityIC50

>  <cnnaffinity>  (1) 
cnnaffinity

>  <rationale>  (1) 
rationale

$$$$
Z700712754
     RDKit          3D

 23 26  0  0  0  0  0  0  0  0999 V2000
    9.9193   17.6011   17.3200 O   0  0  0  0  0  0  0  0  0  0  0  0
   10.2848   16.7845   18.1345 C   0  0  0  0  0  0  0  0  0  0  0  0
   11.0417   15.6349   17.8887 N   0  0  0  0  0  0  0  0  0  0  0  0
   11.2533   14.8549   18.9941 C   0  0  0  0  0  0  0  0  0  0  0  0
   11.9258   13.8516   19.0255 O   0  0  0  0  0  0  0  0  0  0  0  0
   10.5313   15.5677   20.1587 C   0  0  0  0  0  0  0  0  0  0  0  0
    9.2764   14.8128   20.6183 C   0  0  0  0  0  0  0  0  0  0  0  0
    9.6096   13.6180   21.4955 C   0  0  0  0  0  0  0  0  0  0  0  0
   10.4305   14.0364   22.6103 N   0  0  0  0  0  0  0  0  0  0  0  0
   10.1307   13.8707   23.9359 C   0  0  0  0  0  0  0  0  0  0  0  0
   10.5782   14.5995   24.8049 O   0  0  0  0  0  0  0  0  0  0  0  0
    9.2025   12.7307   24.2871 C   0  0  0  0  0  0  0  0  0  0  0  0
    8.1658   12.9305   25.2103 C   0  0  0  0  0  0  0  0  0  0  0  0
    7.3706   11.8781   25.6488 C   0  0  0  0  0  0  0  0  0  0  0  0
    7.5964   10.5643   25.2101 C   0  0  0  0  0  0  0  0  0  0  0  0
    8.6372   10.3730   24.3351 C   0  0  0  0  0  0  0  0  0  0  0  0
    9.4150   11.4262   23.8731 C   0  0  0  0  0  0  0  0  0  0  0  0
   10.3444   10.9429   22.9892 O   0  0  0  0  0  0  0  0  0  0  0  0
   10.3076    9.5278   23.1661 C   0  0  0  0  0  0  0  0  0  0  0  0
    9.0566    9.2024   23.7535 O   0  0  0  0  0  0  0  0  0  0  0  0
   11.7219   14.5604   22.1833 C   0  0  0  0  0  0  0  0  0  0  0  0
   11.5531   15.7899   21.2902 C   0  0  0  0  0  0  0  0  0  0  0  0
   10.1192   16.8035   19.4979 N   0  0  0  0  0  0  0  0  0  0  0  0
  1  2  2  0
  2  3  1  0
  3  4  1  0
  4  5  2  0
  4  6  1  0
  6  7  1  0
  7  8  1  0
  8  9  1  0
  9 10  1  0
 10 11  2  0
 10 12  1  0
 12 13  2  0
 13 14  1  0
 14 15  2  0
 15 16  1  0
 16 17  2  0
 17 18  1  0
 18 19  1  0
 19 20  1  0
  9 21  1  0
 21 22  1  0
  6 23  1  0
 23  2  1  0
 22  6  1  0
 17 12  1  0
 20 16  1  0
M  END
>  <cnnaffinity>  (2) 
-5.8829

>  <cnnaffinityIC50>  (2) 
1309.4834079858076 nanomolar

>  <smiles>  (2) 
O=C1NC(=O)C2(CCN(C(=O)C3=CC=CC4=C3OCO4)CC2)N1 Z700712754

>  <ref_pdb>  (2) 
Ax0310a

>  <ref_mols>  (2) 
Ax0351a

>  <rationale>  (2) 
Enamine real space elaborations around x0351.

$$$$
Z3939980768
     RDKit          3D

 23 26  0  0  0  0  0  0  0  0999 V2000
   12.4153   14.8420   22.4313 C   0  0  0  0  0  0  0  0  0  0  0  0
   11.0589   14.8728   21.7332 C   0  0  2  0  0  0  0  0  0  0  0  0
   10.2371   13.8042   22.3310 N   0  0  0  0  0  0  0  0  0  0  0  0
    9.7648   13.8599   23.6342 C   0  0  0  0  0  0  0  0  0  0  0  0
    9.9410   14.8675   24.2985 O   0  0  0  0  0  0  0  0  0  0  0  0
    9.0184   12.7444   24.2145 C   0  0  0  0  0  0  0  0  0  0  0  0
    7.9680   12.9214   25.1470 C   0  0  0  0  0  0  0  0  0  0  0  0
    7.2784   11.8119   25.6605 C   0  0  0  0  0  0  0  0  0  0  0  0
    5.8207   12.0638   26.8724 Br  0  0  0  0  0  0  0  0  0  0  0  0
    7.6592   10.5183   25.2760 C   0  0  0  0  0  0  0  0  0  0  0  0
    8.7077   10.3507   24.3669 C   0  0  0  0  0  0  0  0  0  0  0  0
    9.3642   11.4469   23.8483 C   0  0  0  0  0  0  0  0  0  0  0  0
   10.3598   11.0793   23.0052 O   0  0  0  0  0  0  0  0  0  0  0  0
   10.3641    9.6417   23.0711 C   0  0  0  0  0  0  0  0  0  0  0  0
    9.2421    9.2054   23.8691 O   0  0  0  0  0  0  0  0  0  0  0  0
   11.2318   14.7931   20.2201 C   0  0  0  0  0  0  0  0  0  0  0  0
   12.1041   14.0744   19.5662 N   0  0  0  0  0  0  0  0  0  0  0  0
   11.9482   14.3924   18.2477 N   0  0  0  0  0  0  0  0  0  0  0  0
   11.0338   15.2791   18.0814 N   0  0  0  0  0  0  0  0  0  0  0  0
   10.5574   15.5724   19.3052 N   0  0  0  0  0  0  0  0  0  0  0  0
    9.7929   16.7873   19.6227 C   0  0  0  0  0  0  0  0  0  0  0  0
    8.3875   16.6978   20.2021 C   0  0  0  0  0  0  0  0  0  0  0  0
    8.5934   17.1969   18.7737 C   0  0  0  0  0  0  0  0  0  0  0  0
  2  1  1  1
  2  3  1  0
  3  4  1  0
  4  5  2  0
  4  6  1  0
  6  7  2  0
  7  8  1  0
  8  9  1  0
  8 10  2  0
 10 11  1  0
 11 12  2  0
 12 13  1  0
 13 14  1  0
 14 15  1  0
  2 16  1  0
 16 17  2  0
 17 18  1  0
 18 19  2  0
 19 20  1  0
 20 21  1  0
 21 22  1  0
 22 23  1  0
 12  6  1  0
 20 16  1  0
 23 21  1  0
 15 11  1  0
M  END
>  <cnnaffinity>  (3) 
-5.85667

>  <cnnaffinityIC50>  (3) 
1391.009192366978 nanomolar

>  <smiles>  (3) 
CC(NC(=O)C1=CC(Br)=CC2=C1OCO2)C1=NN=NN1C1CC1 Z3939980768

>  <ref_pdb>  (3) 
Ax0310a

>  <ref_mols>  (3) 
Ax0351a

>  <rationale>  (3) 
Enamine real space elaborations around x0351.

$$$$
Z5413245914
     RDKit          3D

 23 25  0  0  0  0  0  0  0  0999 V2000
   13.8674   14.9081   25.4321 C   0  0  0  0  0  0  0  0  0  0  0  0
   13.4336   14.2545   24.1190 C   0  0  0  0  0  0  0  0  0  0  0  0
   13.5887   12.7330   24.2088 C   0  0  0  0  0  0  0  0  0  0  0  0
   12.0898   14.6449   23.6303 N   0  0  0  0  0  0  0  0  0  0  0  0
   11.9859   15.0305   22.2282 C   0  0  0  0  0  0  0  0  0  0  0  0
   11.9939   13.8490   21.2408 C   0  0  0  0  0  0  0  0  0  0  0  0
   11.9241   14.3036   19.8239 C   0  0  0  0  0  0  0  0  0  0  0  0
   10.8850   14.1660   19.0176 N   0  0  0  0  0  0  0  0  0  0  0  0
   11.3532   14.7116   17.9073 N   0  0  0  0  0  0  0  0  0  0  0  0
   12.5785   15.1701   17.9967 N   0  0  0  0  0  0  0  0  0  0  0  0
   12.9634   14.9266   19.2138 N   0  0  0  0  0  0  0  0  0  0  0  0
   10.9875   14.3498   24.4041 C   0  0  0  0  0  0  0  0  0  0  0  0
   11.0418   14.2814   25.6219 O   0  0  0  0  0  0  0  0  0  0  0  0
    9.6230   14.1283   23.7209 C   0  0  0  0  0  0  0  0  0  0  0  0
    8.9169   12.8911   24.2348 C   0  0  0  0  0  0  0  0  0  0  0  0
    7.8732   12.9700   25.1681 C   0  0  0  0  0  0  0  0  0  0  0  0
    7.2683   11.8330   25.7005 C   0  0  0  0  0  0  0  0  0  0  0  0
    7.6805   10.5481   25.3188 C   0  0  0  0  0  0  0  0  0  0  0  0
    8.6911   10.4732   24.3872 C   0  0  0  0  0  0  0  0  0  0  0  0
    9.2837   11.6128   23.8541 C   0  0  0  0  0  0  0  0  0  0  0  0
   10.1961   11.2363   22.8946 O   0  0  0  0  0  0  0  0  0  0  0  0
   10.3928    9.8448   23.1327 C   0  0  0  0  0  0  0  0  0  0  0  0
    9.2355    9.3548   23.7978 O   0  0  0  0  0  0  0  0  0  0  0  0
  1  2  1  0
  2  3  1  0
  2  4  1  0
  4  5  1  0
  5  6  1  0
  6  7  1  0
  7  8  2  0
  8  9  1  0
  9 10  1  0
 10 11  2  0
  4 12  1  0
 12 13  2  0
 12 14  1  0
 14 15  1  0
 15 16  2  0
 16 17  1  0
 17 18  2  0
 18 19  1  0
 19 20  2  0
 20 21  1  0
 21 22  1  0
 22 23  1  0
 11  7  1  0
 20 15  1  0
 23 19  1  0
M  END
>  <cnnaffinity>  (4) 
-5.84543

>  <cnnaffinityIC50>  (4) 
1427.4798941981692 nanomolar

>  <smiles>  (4) 
CC(C)N(CCC1=NNN=N1)C(=O)CC1=CC=CC2=C1OCO2 Z5413245914

>  <ref_pdb>  (4) 
Ax0310a

>  <ref_mols>  (4) 
Ax0351a

>  <rationale>  (4) 
Enamine real space elaborations around x0351.

$$$$
Z2433441736
     RDKit          3D

 23 26  0  0  0  0  0  0  0  0999 V2000
   11.0855   15.3438   25.7947 O   0  0  0  0  0  0  0  0  0  0  0  0
   11.7380   14.6482   25.0245 C   0  0  0  0  0  0  0  0  0  0  0  0
   11.1564   14.0476   23.9319 N   0  0  0  0  0  0  0  0  0  0  0  0
    9.7222   14.0591   23.7213 C   0  0  0  0  0  0  0  0  0  0  0  0
    9.0014   12.8429   24.2778 C   0  0  0  0  0  0  0  0  0  0  0  0
    7.9313   12.9539   25.1782 C   0  0  0  0  0  0  0  0  0  0  0  0
    7.2739   11.8350   25.6815 C   0  0  0  0  0  0  0  0  0  0  0  0
    7.6508   10.5372   25.3048 C   0  0  0  0  0  0  0  0  0  0  0  0
    8.7078   10.4348   24.4299 C   0  0  0  0  0  0  0  0  0  0  0  0
    9.3679   11.5546   23.9419 C   0  0  0  0  0  0  0  0  0  0  0  0
   10.3657   11.1648   23.0852 O   0  0  0  0  0  0  0  0  0  0  0  0
   10.4154    9.7419   23.1788 C   0  0  0  0  0  0  0  0  0  0  0  0
    9.2647    9.3009   23.8941 O   0  0  0  0  0  0  0  0  0  0  0  0
   13.0921   14.4040   25.2009 N   0  0  0  0  0  0  0  0  0  0  0  0
   13.7724   15.1192   26.2808 C   0  0  0  0  0  0  0  0  0  0  0  0
   14.3609   14.1567   27.3123 C   0  0  0  0  0  0  0  0  0  0  0  0
   15.1130   13.0916   26.5724 C   0  0  0  0  0  0  0  0  0  0  0  0
   14.9568   12.8115   25.2520 C   0  0  0  0  0  0  0  0  0  0  0  0
   15.8853   11.8417   24.7652 C   0  0  0  0  0  0  0  0  0  0  0  0
   16.6634   11.3484   25.7643 C   0  0  0  0  0  0  0  0  0  0  0  0
   17.8643   10.1201   25.6402 Cl  0  0  0  0  0  0  0  0  0  0  0  0
   16.3141   12.0830   27.2998 S   0  0  0  0  0  0  0  0  0  0  0  0
   13.8125   13.3765   24.4535 C   0  0  0  0  0  0  0  0  0  0  0  0
  1  2  2  0
  2  3  1  0
  3  4  1  0
  4  5  1  0
  5  6  2  0
  6  7  1  0
  7  8  2  0
  8  9  1  0
  9 10  2  0
 10 11  1  0
 11 12  1  0
 12 13  1  0
  2 14  1  0
 14 15  1  0
 15 16  1  0
 16 17  1  0
 17 18  2  0
 18 19  1  0
 19 20  2  0
 20 21  1  0
 20 22  1  0
 18 23  1  0
 10  5  1  0
 23 14  1  0
 13  9  1  0
 22 17  1  0
M  END
>  <cnnaffinity>  (5) 
-5.81261

>  <cnnaffinityIC50>  (5) 
1539.5365361457957 nanomolar

>  <smiles>  (5) 
O=C(NCC1=CC=CC2=C1OCO2)N1CCC2=C(C=C(Cl)S2)C1 Z2433441736

>  <ref_pdb>  (5) 
Ax0310a

>  <ref_mols>  (5) 
Ax0351a

>  <rationale>  (5) 
Enamine real space elaborations around x0351.

$$$$
Z5515073476
     RDKit          3D

 23 25  0  0  0  0  0  0  0  0999 V2000
   11.1858   15.7861   21.9963 C   0  0  0  0  0  0  0  0  0  0  0  0
   11.7489   14.3977   21.6657 C   0  0  0  0  0  0  0  0  0  0  0  0
   13.0707   14.2380   22.4400 C   0  0  0  0  0  0  0  0  0  0  0  0
   10.8355   13.3530   22.2122 N   0  0  0  0  0  0  0  0  0  0  0  0
   10.0487   13.5153   23.3541 C   0  0  0  0  0  0  0  0  0  0  0  0
    9.9741   14.6305   23.8446 O   0  0  0  0  0  0  0  0  0  0  0  0
    9.2672   12.4353   23.9872 C   0  0  0  0  0  0  0  0  0  0  0  0
    9.5363   11.0900   23.7132 C   0  0  0  0  0  0  0  0  0  0  0  0
   10.4748   10.5953   22.8741 O   0  0  0  0  0  0  0  0  0  0  0  0
   10.2727    9.1687   22.9098 C   0  0  0  0  0  0  0  0  0  0  0  0
   11.4337    8.5273   23.2009 F   0  0  0  0  0  0  0  0  0  0  0  0
    9.8121    8.7599   21.7004 F   0  0  0  0  0  0  0  0  0  0  0  0
    9.2719    8.8541   23.8963 O   0  0  0  0  0  0  0  0  0  0  0  0
    8.8354   10.0667   24.3254 C   0  0  0  0  0  0  0  0  0  0  0  0
    7.8243   10.3446   25.2428 C   0  0  0  0  0  0  0  0  0  0  0  0
    7.5312   11.6810   25.5419 C   0  0  0  0  0  0  0  0  0  0  0  0
    8.2455   12.7197   24.9260 C   0  0  0  0  0  0  0  0  0  0  0  0
    7.8068   14.5267   25.3882 Br  0  0  0  0  0  0  0  0  0  0  0  0
   11.9841   14.4295   20.1227 C   0  0  0  0  0  0  0  0  0  0  0  0
   13.0937   14.9153   19.6184 N   0  0  0  0  0  0  0  0  0  0  0  0
   12.9136   14.9044   18.2209 O   0  0  0  0  0  0  0  0  0  0  0  0
   11.6827   14.3803   18.0071 C   0  0  0  0  0  0  0  0  0  0  0  0
   11.0632   14.1120   19.1230 N   0  0  0  0  0  0  0  0  0  0  0  0
  1  2  1  0
  2  3  1  0
  2  4  1  0
  4  5  1  0
  5  6  2  0
  5  7  1  0
  7  8  2  0
  8  9  1  0
  9 10  1  0
 10 11  1  0
 10 12  1  0
 10 13  1  0
 13 14  1  0
 14 15  2  0
 15 16  1  0
 16 17  2  0
 17 18  1  0
  2 19  1  0
 19 20  2  0
 20 21  1  0
 21 22  1  0
 22 23  2  0
 17  7  1  0
 23 19  1  0
 14  8  1  0
M  END
>  <cnnaffinity>  (6) 
-5.80538

>  <cnnaffinityIC50>  (6) 
1565.3807901707244 nanomolar

>  <smiles>  (6) 
CC(C)(NC(=O)C1=C2OC(F)(F)OC2=CC=C1Br)C1=NOC=N1 Z5515073476

>  <ref_pdb>  (6) 
Ax0310a

>  <ref_mols>  (6) 
Ax0351a

>  <rationale>  (6) 
Enamine real space elaborations around x0351.

$$$$
Z4046203212
     RDKit          3D

 23 26  0  0  0  0  0  0  0  0999 V2000
    9.8386   14.8421   24.4059 O   0  0  0  0  0  0  0  0  0  0  0  0
    9.8130   13.8231   23.7295 C   0  0  0  0  0  0  0  0  0  0  0  0
   10.4192   13.7221   22.5241 N   0  0  0  0  0  0  0  0  0  0  0  0
   11.1148   14.8688   21.9668 C   0  0  0  0  0  0  0  0  0  0  0  0
   11.5468   14.6262   20.5594 C   0  0  0  0  0  0  0  0  0  0  0  0
   12.7586   14.1479   20.3216 N   0  0  0  0  0  0  0  0  0  0  0  0
   12.8338   14.0652   18.9876 N   0  0  0  0  0  0  0  0  0  0  0  0
   11.7089   14.4789   18.3638 C   0  0  0  0  0  0  0  0  0  0  0  0
   10.8324   14.8626   19.3538 C   0  0  0  0  0  0  0  0  0  0  0  0
    9.4663   15.4169   19.1993 C   0  0  0  0  0  0  0  0  0  0  0  0
    9.2155   16.8453   19.5854 C   0  0  0  0  0  0  0  0  0  0  0  0
    9.2044   16.4492   18.1376 C   0  0  0  0  0  0  0  0  0  0  0  0
    9.0537   12.6199   24.1940 C   0  0  0  0  0  0  0  0  0  0  0  0
    9.3298   11.3269   23.8102 C   0  0  0  0  0  0  0  0  0  0  0  0
   10.2475   10.8849   22.8868 O   0  0  0  0  0  0  0  0  0  0  0  0
   10.2471    9.5015   22.9291 C   0  0  0  0  0  0  0  0  0  0  0  0
   11.4272    9.0365   23.3682 F   0  0  0  0  0  0  0  0  0  0  0  0
   10.0751    8.9904   21.7073 F   0  0  0  0  0  0  0  0  0  0  0  0
    9.2245    9.1009   23.7670 O   0  0  0  0  0  0  0  0  0  0  0  0
    8.6763   10.2340   24.3406 C   0  0  0  0  0  0  0  0  0  0  0  0
    7.6607   10.3655   25.2578 C   0  0  0  0  0  0  0  0  0  0  0  0
    7.3368   11.6821   25.6361 C   0  0  0  0  0  0  0  0  0  0  0  0
    8.0333   12.7765   25.1426 C   0  0  0  0  0  0  0  0  0  0  0  0
  1  2  2  0
  2  3  1  0
  3  4  1  0
  4  5  1  0
  5  6  2  0
  6  7  1  0
  7  8  1  0
  8  9  2  0
  9 10  1  0
 10 11  1  0
 11 12  1  0
  2 13  1  0
 13 14  2  0
 14 15  1  0
 15 16  1  0
 16 17  1  0
 16 18  1  0
 16 19  1  0
 19 20  1  0
 20 21  2  0
 21 22  1  0
 22 23  2  0
  9  5  1  0
 12 10  1  0
 23 13  1  0
 20 14  1  0
M  END
>  <cnnaffinity>  (7) 
-5.77983

>  <cnnaffinityIC50>  (7) 
1660.2366624116466 nanomolar

>  <smiles>  (7) 
O=C(NCC1=NNC=C1C1CC1)C1=C2OC(F)(F)OC2=CC=C1 Z4046203212

>  <ref_pdb>  (7) 
Ax0310a

>  <ref_mols>  (7) 
Ax0351a

>  <rationale>  (7) 
Enamine real space elaborations around x0351.

$$$$
Z5506559082
     RDKit          3D

 23 25  0  0  0  0  0  0  0  0999 V2000
   11.4953   14.7499   18.0385 C   0  0  0  0  0  0  0  0  0  0  0  0
   11.2300   14.8363   19.4733 N   0  0  0  0  0  0  0  0  0  0  0  0
    9.9679   15.4090   19.9226 C   0  0  0  0  0  0  0  0  0  0  0  0
   12.2000   14.4546   20.4043 C   0  0  0  0  0  0  0  0  0  0  0  0
   13.3335   14.2632   19.9783 O   0  0  0  0  0  0  0  0  0  0  0  0
   11.9184   14.3839   21.9519 C   0  0  0  0  0  0  0  0  0  0  0  0
   10.8278   13.5168   22.4729 N   0  0  0  0  0  0  0  0  0  0  0  0
   10.1402   13.7196   23.6679 C   0  0  0  0  0  0  0  0  0  0  0  0
   10.2291   14.7780   24.2656 O   0  0  0  0  0  0  0  0  0  0  0  0
    9.2914   12.6681   24.2301 C   0  0  0  0  0  0  0  0  0  0  0  0
    9.5314   11.3493   23.8636 C   0  0  0  0  0  0  0  0  0  0  0  0
   10.5023   10.9259   23.0234 O   0  0  0  0  0  0  0  0  0  0  0  0
   10.3192    9.5016   22.9618 C   0  0  0  0  0  0  0  0  0  0  0  0
   11.4596    8.8747   23.3478 F   0  0  0  0  0  0  0  0  0  0  0  0
   10.0133    9.1547   21.6849 F   0  0  0  0  0  0  0  0  0  0  0  0
    9.2269    9.1272   23.8291 O   0  0  0  0  0  0  0  0  0  0  0  0
    8.7792   10.3017   24.3457 C   0  0  0  0  0  0  0  0  0  0  0  0
    7.7270   10.5508   25.2304 C   0  0  0  0  0  0  0  0  0  0  0  0
    7.4568   11.8732   25.6198 C   0  0  0  0  0  0  0  0  0  0  0  0
    8.2393   12.9315   25.1325 C   0  0  0  0  0  0  0  0  0  0  0  0
    7.8528   14.7212   25.6942 Br  0  0  0  0  0  0  0  0  0  0  0  0
   12.2580   15.6722   22.7078 C   0  0  0  0  0  0  0  0  0  0  0  0
   13.0810   14.4177   22.9453 C   0  0  0  0  0  0  0  0  0  0  0  0
  1  2  1  0
  2  3  1  0
  2  4  1  0
  4  5  2  0
  4  6  1  0
  6  7  1  0
  7  8  1  0
  8  9  2  0
  8 10  1  0
 10 11  2  0
 11 12  1  0
 12 13  1  0
 13 14  1  0
 13 15  1  0
 13 16  1  0
 16 17  1  0
 17 18  2  0
 18 19  1  0
 19 20  2  0
 20 21  1  0
  6 22  1  0
 22 23  1  0
 23  6  1  0
 20 10  1  0
 17 11  1  0
M  END
>  <cnnaffinity>  (8) 
-5.75266

>  <cnnaffinityIC50>  (8) 
1767.4209558314603 nanomolar

>  <smiles>  (8) 
CN(C)C(=O)C1(NC(=O)C2=C3OC(F)(F)OC3=CC=C2Br)CC1 Z5506559082

>  <ref_pdb>  (8) 
Ax0310a

>  <ref_mols>  (8) 
Ax0351a

>  <rationale>  (8) 
Enamine real space elaborations around x0351.

$$$$
Z5604043259
     RDKit          3D

 23 25  0  0  0  0  0  0  0  0999 V2000
   12.4055   14.7716   22.3807 C   0  0  0  0  0  0  0  0  0  0  0  0
   11.0181   14.8265   21.7399 C   0  0  2  0  0  0  0  0  0  0  0  0
   10.2344   13.7157   22.3136 N   0  0  0  0  0  0  0  0  0  0  0  0
    9.7398   13.7536   23.6102 C   0  0  0  0  0  0  0  0  0  0  0  0
    9.8573   14.7793   24.2638 O   0  0  0  0  0  0  0  0  0  0  0  0
    9.0508   12.6123   24.1992 C   0  0  0  0  0  0  0  0  0  0  0  0
    9.3908   11.3185   23.8115 C   0  0  0  0  0  0  0  0  0  0  0  0
   10.3254   10.9528   22.9001 O   0  0  0  0  0  0  0  0  0  0  0  0
   10.3005    9.5136   22.9278 C   0  0  0  0  0  0  0  0  0  0  0  0
   11.5086    9.0490   23.3382 F   0  0  0  0  0  0  0  0  0  0  0  0
   10.0241    9.0365   21.6883 F   0  0  0  0  0  0  0  0  0  0  0  0
    9.2678    9.0734   23.8337 O   0  0  0  0  0  0  0  0  0  0  0  0
    8.7668   10.2194   24.3607 C   0  0  0  0  0  0  0  0  0  0  0  0
    7.7566   10.3848   25.3104 C   0  0  0  0  0  0  0  0  0  0  0  0
    7.3817   11.6790   25.6992 C   0  0  0  0  0  0  0  0  0  0  0  0
    8.0324   12.7917   25.1565 C   0  0  0  0  0  0  0  0  0  0  0  0
    7.4749   14.5476   25.6809 Br  0  0  0  0  0  0  0  0  0  0  0  0
   11.0892   14.8662   20.2095 C   0  0  0  0  0  0  0  0  0  0  0  0
   12.0179   14.3444   19.4443 N   0  0  0  0  0  0  0  0  0  0  0  0
   11.6317   14.6900   18.1579 C   0  0  0  0  0  0  0  0  0  0  0  0
   10.5485   15.4214   18.1126 N   0  0  0  0  0  0  0  0  0  0  0  0
   10.1858   15.5436   19.3998 N   0  0  0  0  0  0  0  0  0  0  0  0
    9.1303   16.4728   19.8158 C   0  0  0  0  0  0  0  0  0  0  0  0
  2  1  1  1
  2  3  1  0
  3  4  1  0
  4  5  2  0
  4  6  1  0
  6  7  2  0
  7  8  1  0
  8  9  1  0
  9 10  1  0
  9 11  1  0
  9 12  1  0
 12 13  1  0
 13 14  2  0
 14 15  1  0
 15 16  2  0
 16 17  1  0
  2 18  1  0
 18 19  2  0
 19 20  1  0
 20 21  2  0
 21 22  1  0
 22 23  1  0
 16  6  1  0
 22 18  1  0
 13  7  1  0
M  END
>  <cnnaffinity>  (9) 
-5.75159

>  <cnnaffinityIC50>  (9) 
1771.7808362348512 nanomolar

>  <smiles>  (9) 
C[C@H](NC(=O)C1=C2OC(F)(F)OC2=CC=C1Br)C1=NC=NN1C Z5604043259

>  <ref_pdb>  (9) 
Ax0310a

>  <ref_mols>  (9) 
Ax0351a

>  <rationale>  (9) 
Enamine real space elaborations around x0351.

$$$$
Z2635938908
     RDKit          3D

 23 24  0  0  0  0  0  0  0  0999 V2000
    9.3111   14.9384   20.0858 C   0  0  0  0  0  0  0  0  0  0  0  0
   10.3620   15.4780   21.0409 C   0  0  0  0  0  0  0  0  0  0  0  0
   11.3316   14.4695   21.6602 C   0  0  1  0  0  0  0  0  0  0  0  0
   10.5939   13.4208   22.3588 N   0  0  0  0  0  0  0  0  0  0  0  0
    9.7185   13.6155   23.3715 C   0  0  0  0  0  0  0  0  0  0  0  0
    9.4035   14.7179   23.8022 O   0  0  0  0  0  0  0  0  0  0  0  0
    9.1172   12.3828   23.9594 C   0  0  0  0  0  0  0  0  0  0  0  0
    8.0919   12.5303   24.9044 C   0  0  0  0  0  0  0  0  0  0  0  0
    7.4797   11.4296   25.4848 C   0  0  0  0  0  0  0  0  0  0  0  0
    7.8603   10.1197   25.1500 C   0  0  0  0  0  0  0  0  0  0  0  0
    8.8592    9.9918   24.2201 C   0  0  0  0  0  0  0  0  0  0  0  0
    9.4713   11.0866   23.6437 C   0  0  0  0  0  0  0  0  0  0  0  0
   10.4261   10.6228   22.7635 O   0  0  0  0  0  0  0  0  0  0  0  0
   10.3172    9.2447   22.7070 C   0  0  0  0  0  0  0  0  0  0  0  0
    9.8746    8.8582   21.4965 F   0  0  0  0  0  0  0  0  0  0  0  0
   11.5028    8.6601   22.8779 F   0  0  0  0  0  0  0  0  0  0  0  0
    9.4283    8.8507   23.6853 O   0  0  0  0  0  0  0  0  0  0  0  0
   12.1925   13.6803   20.6635 C   0  0  0  0  0  0  0  0  0  0  0  0
   12.3721   14.0992   19.3812 N   0  0  0  0  0  0  0  0  0  0  0  0
   12.7436   12.6829   21.1004 O   0  0  0  0  0  0  0  0  0  0  0  0
   12.3454   15.1961   22.6063 C   0  0  0  0  0  0  0  0  0  0  0  0
   13.4305   15.8976   21.7900 C   0  0  0  0  0  0  0  0  0  0  0  0
   13.0080   14.2546   23.6185 C   0  0  0  0  0  0  0  0  0  0  0  0
  1  2  1  0
  3  2  1  6
  3  4  1  0
  4  5  1  0
  5  6  2  0
  5  7  1  0
  7  8  2  0
  8  9  1  0
  9 10  2  0
 10 11  1  0
 11 12  2  0
 12 13  1  0
 13 14  1  0
 14 15  1  0
 14 16  1  0
 14 17  1  0
  3 18  1  0
 18 19  1  0
 18 20  2  0
  3 21  1  0
 21 22  1  0
 21 23  1  0
 12  7  1  0
 17 11  1  0
M  END
>  <cnnaffinity>  (10) 
-5.74632

>  <cnnaffinityIC50>  (10) 
1793.4117052998124 nanomolar

>  <smiles>  (10) 
CCC(NC(=O)C1=CC=CC2=C1OC(F)(F)O2)(C(N)=O)C(C)C Z2635938908

>  <ref_pdb>  (10) 
Ax0310a

>  <ref_mols>  (10) 
Ax0351a

>  <rationale>  (10) 
Enamine real space elaborations around x0351.

$$$$
Z5339719725
     RDKit          3D

 22 25  0  0  0  0  0  0  0  0999 V2000
    9.8745   14.6017   23.1062 O   0  0  0  0  0  0  0  0  0  0  0  0
    9.8481   13.4436   22.7131 C   0  0  0  0  0  0  0  0  0  0  0  0
   10.5166   13.1409   21.5387 N   0  0  0  0  0  0  0  0  0  0  0  0
   11.3312   14.1123   20.7802 C   0  0  0  0  0  0  0  0  0  0  0  0
   10.5239   15.1311   20.0037 C   0  0  0  0  0  0  0  0  0  0  0  0
    9.8231   16.0024   20.6623 N   0  0  0  0  0  0  0  0  0  0  0  0
    9.4343   17.0727   19.8177 O   0  0  0  0  0  0  0  0  0  0  0  0
    9.7051   16.6845   18.4828 C   0  0  0  0  0  0  0  0  0  0  0  0
    8.4095   16.5086   17.7402 C   0  0  0  0  0  0  0  0  0  0  0  0
    8.6836   17.6520   16.8335 C   0  0  0  0  0  0  0  0  0  0  0  0
   10.0241   17.7876   17.4863 C   0  0  0  0  0  0  0  0  0  0  0  0
   10.6169   15.4575   18.5462 C   0  0  0  0  0  0  0  0  0  0  0  0
    9.1349   12.4274   23.5028 C   0  0  0  0  0  0  0  0  0  0  0  0
    8.1875   12.7651   24.4977 C   0  0  0  0  0  0  0  0  0  0  0  0
    7.6019   11.7757   25.3046 C   0  0  0  0  0  0  0  0  0  0  0  0
    6.3461   12.2573   26.6642 Br  0  0  0  0  0  0  0  0  0  0  0  0
    7.9603   10.4337   25.1290 C   0  0  0  0  0  0  0  0  0  0  0  0
    8.8760   10.0985   24.1307 C   0  0  0  0  0  0  0  0  0  0  0  0
    9.4392   11.0767   23.3339 C   0  0  0  0  0  0  0  0  0  0  0  0
   10.3220   10.5381   22.4595 O   0  0  0  0  0  0  0  0  0  0  0  0
   10.3916    9.1483   22.8322 C   0  0  0  0  0  0  0  0  0  0  0  0
    9.3635    8.8741   23.8042 O   0  0  0  0  0  0  0  0  0  0  0  0
  1  2  2  0
  2  3  1  0
  3  4  1  0
  4  5  1  0
  5  6  2  0
  6  7  1  0
  7  8  1  0
  8  9  1  0
  9 10  1  0
 10 11  1  0
  8 12  1  0
  2 13  1  0
 13 14  2  0
 14 15  1  0
 15 16  1  0
 15 17  2  0
 17 18  1  0
 18 19  2  0
 19 20  1  0
 20 21  1  0
 21 22  1  0
 12  5  1  0
 19 13  1  0
 11  8  1  0
 22 18  1  0
M  END
>  <cnnaffinity>  (11) 
-5.74602

>  <cnnaffinityIC50>  (11) 
1794.6509781976968 nanomolar

>  <smiles>  (11) 
O=C(NCC1=NOC2(CCC2)C1)C1=CC(Br)=CC2=C1OCO2 Z5339719725

>  <ref_pdb>  (11) 
Ax0310a

>  <ref_mols>  (11) 
Ax0351a

>  <rationale>  (11) 
Enamine real space elaborations around x0351.

$$$$
Z5264898266
     RDKit          3D

 23 25  0  0  0  0  0  0  0  0999 V2000
   14.4367   13.4314   24.4224 C   0  0  0  0  0  0  0  0  0  0  0  0
   13.3836   13.2647   23.3267 C   0  0  0  0  0  0  0  0  0  0  0  0
   12.7081   14.5867   22.9567 C   0  0  0  0  0  0  0  0  0  0  0  0
   11.5583   14.4591   21.9475 C   0  0  1  0  0  0  0  0  0  0  0  0
   10.5973   13.4344   22.3757 N   0  0  0  0  0  0  0  0  0  0  0  0
    9.8931   13.5582   23.5431 C   0  0  0  0  0  0  0  0  0  0  0  0
    9.7996   14.6016   24.1797 O   0  0  0  0  0  0  0  0  0  0  0  0
    9.1860   12.3465   24.0384 C   0  0  0  0  0  0  0  0  0  0  0  0
    8.1970   12.4890   25.0262 C   0  0  0  0  0  0  0  0  0  0  0  0
    7.5168   11.3875   25.5273 C   0  0  0  0  0  0  0  0  0  0  0  0
    7.8034   10.0894   25.0746 C   0  0  0  0  0  0  0  0  0  0  0  0
    8.7942    9.9684   24.1397 C   0  0  0  0  0  0  0  0  0  0  0  0
    9.4605   11.0630   23.6309 C   0  0  0  0  0  0  0  0  0  0  0  0
   10.4057   10.6178   22.7353 O   0  0  0  0  0  0  0  0  0  0  0  0
   10.2798    9.2425   22.6421 C   0  0  0  0  0  0  0  0  0  0  0  0
    9.9274    8.8849   21.3975 F   0  0  0  0  0  0  0  0  0  0  0  0
   11.4452    8.6410   22.8954 F   0  0  0  0  0  0  0  0  0  0  0  0
    9.3175    8.8363   23.5452 O   0  0  0  0  0  0  0  0  0  0  0  0
   10.8169   15.7774   21.7266 C   0  0  0  0  0  0  0  0  0  0  0  0
   10.2721   15.7058   20.3050 C   0  0  0  0  0  0  0  0  0  0  0  0
   11.3258   14.9569   19.6546 N   0  0  0  0  0  0  0  0  0  0  0  0
   12.0077   14.1346   20.5029 C   0  0  0  0  0  0  0  0  0  0  0  0
   12.8186   13.3081   20.1470 O   0  0  0  0  0  0  0  0  0  0  0  0
  1  2  1  0
  2  3  1  0
  4  3  1  1
  4  5  1  0
  5  6  1  0
  6  7  2  0
  6  8  1  0
  8  9  2  0
  9 10  1  0
 10 11  2  0
 11 12  1  0
 12 13  2  0
 13 14  1  0
 14 15  1  0
 15 16  1  0
 15 17  1  0
 15 18  1  0
  4 19  1  0
 19 20  1  0
 20 21  1  0
 21 22  1  0
 22 23  2  0
 22  4  1  0
 13  8  1  0
 18 12  1  0
M  END
>  <cnnaffinity>  (12) 
-5.74506

>  <cnnaffinityIC50>  (12) 
1798.6224090941696 nanomolar

>  <smiles>  (12) 
CCCC1(NC(=O)C2=CC=CC3=C2OC(F)(F)O3)CCNC1=O Z5264898266

>  <ref_pdb>  (12) 
Ax0310a

>  <ref_mols>  (12) 
Ax0351a

>  <rationale>  (12) 
Enamine real space elaborations around x0351.

$$$$
Z4303140447
     RDKit          3D

 23 26  0  0  0  0  0  0  0  0999 V2000
   11.0271   14.3580   25.0474 O   0  0  0  0  0  0  0  0  0  0  0  0
   10.4365   13.7002   24.2029 C   0  0  0  0  0  0  0  0  0  0  0  0
    9.4437   12.7073   24.6088 C   0  0  0  0  0  0  0  0  0  0  0  0
    9.5902   11.4124   24.1202 C   0  0  0  0  0  0  0  0  0  0  0  0
   10.5686   10.9874   23.2873 O   0  0  0  0  0  0  0  0  0  0  0  0
   10.3201    9.5804   23.1312 C   0  0  0  0  0  0  0  0  0  0  0  0
    9.0877    9.2515   23.8107 O   0  0  0  0  0  0  0  0  0  0  0  0
    8.7129   10.4021   24.4371 C   0  0  0  0  0  0  0  0  0  0  0  0
    7.6348   10.6656   25.2885 C   0  0  0  0  0  0  0  0  0  0  0  0
    7.4478   11.9752   25.7749 C   0  0  0  0  0  0  0  0  0  0  0  0
    8.3398   12.9994   25.4219 C   0  0  0  0  0  0  0  0  0  0  0  0
    8.0242   14.7914   26.0012 Br  0  0  0  0  0  0  0  0  0  0  0  0
   10.7492   13.8163   22.8547 N   0  0  0  0  0  0  0  0  0  0  0  0
    9.8781   13.2009   21.8740 C   0  0  0  0  0  0  0  0  0  0  0  0
    9.3998   14.2433   20.8593 C   0  0  0  0  0  0  0  0  0  0  0  0
   10.5225   15.1329   20.2876 C   0  0  0  0  0  0  0  0  0  0  0  0
    9.8599   16.2484   19.4908 C   0  0  0  0  0  0  0  0  0  0  0  0
   10.1169   16.5919   18.2526 N   0  0  0  0  0  0  0  0  0  0  0  0
    9.2230   17.5653   17.8563 N   0  0  0  0  0  0  0  0  0  0  0  0
    8.4241   17.8117   18.8634 C   0  0  0  0  0  0  0  0  0  0  0  0
    8.7994   17.0105   19.9096 N   0  0  0  0  0  0  0  0  0  0  0  0
   11.4574   15.6360   21.4241 C   0  0  0  0  0  0  0  0  0  0  0  0
   11.9269   14.5144   22.3507 C   0  0  0  0  0  0  0  0  0  0  0  0
  1  2  2  0
  2  3  1  0
  3  4  2  0
  4  5  1  0
  5  6  1  0
  6  7  1  0
  7  8  1  0
  8  9  2  0
  9 10  1  0
 10 11  2  0
 11 12  1  0
  2 13  1  0
 13 14  1  0
 14 15  1  0
 15 16  1  0
 16 17  1  0
 17 18  2  0
 18 19  1  0
 19 20  2  0
 20 21  1  0
 16 22  1  0
 22 23  1  0
 11  3  1  0
 23 13  1  0
  8  4  1  0
 21 17  1  0
M  END
>  <cnnaffinity>  (13) 
-5.72953

>  <cnnaffinityIC50>  (13) 
1864.103406103479 nanomolar

>  <smiles>  (13) 
O=C(C1=C2OCOC2=CC=C1Br)N1CCC(C2=NN=CN2)CC1 Z4303140447

>  <ref_pdb>  (13) 
Ax0310a

>  <ref_mols>  (13) 
Ax0351a

>  <rationale>  (13) 
Enamine real space elaborations around x0351.

$$$$
Z3368808819
     RDKit          3D

 23 27  0  0  0  0  0  0  0  0999 V2000
   17.8703   14.5909   25.2920 N   0  0  0  0  0  0  0  0  0  0  0  0
   16.8915   13.9744   25.2946 C   0  0  0  0  0  0  0  0  0  0  0  0
   15.7898   13.0443   25.3719 C   0  0  1  0  0  0  0  0  0  0  0  0
   14.3956   13.5325   25.1717 C   0  0  0  0  0  0  0  0  0  0  0  0
   13.4353   12.9658   24.4873 N   0  0  0  0  0  0  0  0  0  0  0  0
   12.4185   13.8891   24.5791 C   0  0  0  0  0  0  0  0  0  0  0  0
   11.0965   13.8332   23.8430 C   0  0  0  0  0  0  0  0  0  0  0  0
   10.0544   12.8123   24.2568 C   0  0  0  0  0  0  0  0  0  0  0  0
    8.9309   13.1731   25.0210 C   0  0  0  0  0  0  0  0  0  0  0  0
    7.9878   12.2369   25.4323 C   0  0  0  0  0  0  0  0  0  0  0  0
    8.0878   10.8868   25.0600 C   0  0  0  0  0  0  0  0  0  0  0  0
    9.1563   10.5550   24.2598 C   0  0  0  0  0  0  0  0  0  0  0  0
   10.0870   11.4964   23.8365 C   0  0  0  0  0  0  0  0  0  0  0  0
   10.9294   10.9102   22.9231 O   0  0  0  0  0  0  0  0  0  0  0  0
   10.7314    9.5163   23.1120 C   0  0  0  0  0  0  0  0  0  0  0  0
    9.4434    9.3400   23.6881 O   0  0  0  0  0  0  0  0  0  0  0  0
   12.7244   14.9415   25.2888 N   0  0  0  0  0  0  0  0  0  0  0  0
   14.0340   14.7042   25.6849 O   0  0  0  0  0  0  0  0  0  0  0  0
   16.0147   11.6289   24.8926 C   0  0  0  0  0  0  0  0  0  0  0  0
   16.1002   11.9155   26.3541 C   0  0  0  0  0  0  0  0  0  0  0  0
   15.2445   11.7664   27.5952 C   0  0  0  0  0  0  0  0  0  0  0  0
   16.5208   11.6628   28.4527 C   0  0  0  0  0  0  0  0  0  0  0  0
   17.3796   11.7228   27.1701 C   0  0  0  0  0  0  0  0  0  0  0  0
  1  2  3  0
  3  2  1  6
  3  4  1  0
  4  5  2  0
  5  6  1  0
  6  7  1  0
  7  8  1  0
  8  9  2  0
  9 10  1  0
 10 11  2  0
 11 12  1  0
 12 13  2  0
 13 14  1  0
 14 15  1  0
 15 16  1  0
  6 17  2  0
 17 18  1  0
  3 19  1  0
 19 20  1  0
 20 21  1  0
 21 22  1  0
 22 23  1  0
 20  3  1  0
 18  4  1  0
 23 20  1  0
 13  8  1  0
 16 12  1  0
M  END
>  <cnnaffinity>  (14) 
-5.72617

>  <cnnaffinityIC50>  (14) 
1878.5813219926533 nanomolar

>  <smiles>  (14) 
N#CC1(C2=NC(CC3=CC=CC4=C3OCO4)=NO2)CC12CCC2 Z3368808819

>  <ref_pdb>  (14) 
Ax0310a

>  <ref_mols>  (14) 
Ax0351a

>  <rationale>  (14) 
Enamine real space elaborations around x0351.

$$$$
Z3352011666
     RDKit          3D

 23 25  0  0  0  0  0  0  0  0999 V2000
   10.0296   16.1704   19.6371 C   0  0  0  0  0  0  0  0  0  0  0  0
   11.0382   15.3028   19.0572 N   0  0  0  0  0  0  0  0  0  0  0  0
   12.3446   14.7962   19.9248 S   0  0  0  0  0  6  0  0  0  0  0  0
   13.0864   15.9623   20.3691 O   0  0  0  0  0  0  0  0  0  0  0  0
   12.9341   13.7666   19.0950 O   0  0  0  0  0  0  0  0  0  0  0  0
   11.7477   13.9974   21.4024 C   0  0  0  0  0  0  0  0  0  0  0  0
   11.5929   14.9299   22.6144 C   0  0  2  0  0  0  0  0  0  0  0  0
   12.9142   15.2237   23.3379 C   0  0  0  0  0  0  0  0  0  0  0  0
   13.0660   14.0469   24.2998 C   0  0  0  0  0  0  0  0  0  0  0  0
   11.6294   13.7877   24.7613 C   0  0  0  0  0  0  0  0  0  0  0  0
   10.8166   14.2477   23.6425 N   0  0  0  0  0  0  0  0  0  0  0  0
    9.5064   13.9710   23.4213 C   0  0  0  0  0  0  0  0  0  0  0  0
    8.8483   14.5510   22.5705 O   0  0  0  0  0  0  0  0  0  0  0  0
    8.9276   12.8377   24.2386 C   0  0  0  0  0  0  0  0  0  0  0  0
    9.3412   11.5466   23.9739 C   0  0  0  0  0  0  0  0  0  0  0  0
   10.3511   11.1601   23.1383 O   0  0  0  0  0  0  0  0  0  0  0  0
   10.4321    9.7397   23.2566 C   0  0  0  0  0  0  0  0  0  0  0  0
    9.2958    9.2925   23.9874 O   0  0  0  0  0  0  0  0  0  0  0  0
    8.7232   10.4239   24.5036 C   0  0  0  0  0  0  0  0  0  0  0  0
    7.6879   10.5381   25.3998 C   0  0  0  0  0  0  0  0  0  0  0  0
    7.3003   11.8363   25.7630 C   0  0  0  0  0  0  0  0  0  0  0  0
    7.9111   12.9532   25.1957 C   0  0  0  0  0  0  0  0  0  0  0  0
    7.4168   14.5356   25.7242 Cl  0  0  0  0  0  0  0  0  0  0  0  0
  1  2  1  0
  2  3  1  0
  3  4  2  0
  3  5  2  0
  3  6  1  0
  7  6  1  6
  7  8  1  0
  8  9  1  0
  9 10  1  0
 10 11  1  0
 11 12  1  0
 12 13  2  0
 12 14  1  0
 14 15  2  0
 15 16  1  0
 16 17  1  0
 17 18  1  0
 18 19  1  0
 19 20  2  0
 20 21  1  0
 21 22  2  0
 22 23  1  0
 11  7  1  0
 22 14  1  0
 19 15  1  0
M  END
>  <cnnaffinity>  (15) 
-5.72323

>  <cnnaffinityIC50>  (15) 
1891.3417090636938 nanomolar

>  <smiles>  (15) 
CNS(=O)(=O)CC1CCCN1C(=O)C1=C2OCOC2=CC=C1Cl Z3352011666

>  <ref_pdb>  (15) 
Ax0310a

>  <ref_mols>  (15) 
Ax0351a

>  <rationale>  (15) 
Enamine real space elaborations around x0351.

$$$$
Z5463574230
     RDKit          3D

 23 25  0  0  0  0  0  0  0  0999 V2000
   17.9500   11.2460   26.5210 C   0  0  0  0  0  0  0  0  0  0  0  0
   16.6068   11.9638   26.6819 C   0  0  0  0  0  0  0  0  0  0  0  0
   16.3392   12.1518   28.1761 C   0  0  0  0  0  0  0  0  0  0  0  0
   16.5566   13.3034   25.8978 C   0  0  2  0  0  0  0  0  0  0  0  0
   17.6448   14.1740   26.3402 N   0  0  0  0  0  0  0  0  0  0  0  0
   15.1761   13.9251   25.9255 C   0  0  0  0  0  0  0  0  0  0  0  0
   14.7027   14.8443   26.8079 C   0  0  0  0  0  0  0  0  0  0  0  0
   13.0933   15.3243   26.4034 S   0  0  0  0  0  0  0  0  0  0  0  0
   13.1527   14.1864   25.0895 C   0  0  0  0  0  0  0  0  0  0  0  0
   12.0305   13.9440   24.2988 N   0  0  0  0  0  0  0  0  0  0  0  0
   10.8132   14.5687   24.4825 C   0  0  0  0  0  0  0  0  0  0  0  0
   10.6327   15.4305   25.3215 O   0  0  0  0  0  0  0  0  0  0  0  0
    9.6987   14.0692   23.5727 C   0  0  0  0  0  0  0  0  0  0  0  0
    8.9833   12.8837   24.1834 C   0  0  0  0  0  0  0  0  0  0  0  0
    7.9322   13.0306   25.1036 C   0  0  0  0  0  0  0  0  0  0  0  0
    7.3076   11.9288   25.6830 C   0  0  0  0  0  0  0  0  0  0  0  0
    7.6968   10.6181   25.3605 C   0  0  0  0  0  0  0  0  0  0  0  0
    8.7232   10.4866   24.4534 C   0  0  0  0  0  0  0  0  0  0  0  0
    9.3531   11.5884   23.8915 C   0  0  0  0  0  0  0  0  0  0  0  0
   10.3071   11.1702   22.9988 O   0  0  0  0  0  0  0  0  0  0  0  0
   10.3619    9.7489   23.1285 C   0  0  0  0  0  0  0  0  0  0  0  0
    9.2532    9.3364   23.9211 O   0  0  0  0  0  0  0  0  0  0  0  0
   14.2644   13.5275   24.9594 N   0  0  0  0  0  0  0  0  0  0  0  0
  1  2  1  0
  2  3  1  0
  2  4  1  0
  4  5  1  1
  4  6  1  0
  6  7  2  0
  7  8  1  0
  8  9  1  0
  9 10  1  0
 10 11  1  0
 11 12  2  0
 11 13  1  0
 13 14  1  0
 14 15  2  0
 15 16  1  0
 16 17  2  0
 17 18  1  0
 18 19  2  0
 19 20  1  0
 20 21  1  0
 21 22  1  0
  9 23  2  0
 23  6  1  0
 19 14  1  0
 22 18  1  0
M  END
>  <cnnaffinity>  (16) 
-5.70976

>  <cnnaffinityIC50>  (16) 
1950.922421489939 nanomolar

>  <smiles>  (16) 
CC(C)[C@H](N)C1=CSC(NC(=O)CC2=CC=CC3=C2OCO3)=N1 Z5463574230

>  <ref_pdb>  (16) 
Ax0310a

>  <ref_mols>  (16) 
Ax0351a

>  <rationale>  (16) 
Enamine real space elaborations around x0351.

$$$$
Z4305125307
     RDKit          3D

 23 25  0  0  0  0  0  0  0  0999 V2000
   10.7777   17.4016   17.2369 N   0  0  0  0  0  0  0  0  0  0  0  0
   10.2171   16.6998   17.9735 C   0  0  0  0  0  0  0  0  0  0  0  0
    9.3778   15.9074   18.8625 C   0  0  0  0  0  0  0  0  0  0  0  0
    8.5126   16.8989   19.5217 C   0  0  0  0  0  0  0  0  0  0  0  0
    7.8043   17.6803   20.0122 N   0  0  0  0  0  0  0  0  0  0  0  0
   10.1364   15.0011   19.8780 C   0  0  0  0  0  0  0  0  0  0  0  0
   10.7673   15.7850   21.0247 C   0  0  0  0  0  0  0  0  0  0  0  0
   11.5129   14.9306   22.0366 C   0  0  0  0  0  0  0  0  0  0  0  0
   10.5200   14.0386   22.6235 N   0  0  0  0  0  0  0  0  0  0  0  0
   10.2973   13.9457   23.9942 C   0  0  0  0  0  0  0  0  0  0  0  0
   10.7889   14.7515   24.7742 O   0  0  0  0  0  0  0  0  0  0  0  0
    9.4215   12.8802   24.4795 C   0  0  0  0  0  0  0  0  0  0  0  0
    9.6463   11.5769   24.0250 C   0  0  0  0  0  0  0  0  0  0  0  0
   10.6649   11.1481   23.2372 O   0  0  0  0  0  0  0  0  0  0  0  0
   10.4250    9.7397   23.0541 C   0  0  0  0  0  0  0  0  0  0  0  0
    9.1992    9.3917   23.7324 O   0  0  0  0  0  0  0  0  0  0  0  0
    8.7834   10.5457   24.3228 C   0  0  0  0  0  0  0  0  0  0  0  0
    7.6469   10.7949   25.0986 C   0  0  0  0  0  0  0  0  0  0  0  0
    7.4135   12.0945   25.5866 C   0  0  0  0  0  0  0  0  0  0  0  0
    8.3047   13.1381   25.2907 C   0  0  0  0  0  0  0  0  0  0  0  0
    7.9569   14.9131   25.9247 Br  0  0  0  0  0  0  0  0  0  0  0  0
    9.6969   13.2509   21.7150 C   0  0  0  0  0  0  0  0  0  0  0  0
    9.1023   14.0992   20.5710 C   0  0  0  0  0  0  0  0  0  0  0  0
  1  2  3  0
  2  3  1  0
  3  4  1  0
  4  5  3  0
  3  6  1  0
  6  7  1  0
  7  8  1  0
  8  9  1  0
  9 10  1  0
 10 11  2  0
 10 12  1  0
 12 13  2  0
 13 14  1  0
 14 15  1  0
 15 16  1  0
 16 17  1  0
 17 18  2  0
 18 19  1  0
 19 20  2  0
 20 21  1  0
  9 22  1  0
 22 23  1  0
 23  6  1  0
 20 12  1  0
 17 13  1  0
M  END
>  <cnnaffinity>  (17) 
-5.70418

>  <cnnaffinityIC50>  (17) 
1976.1504245437357 nanomolar

>  <smiles>  (17) 
N#CC(C#N)C1CCN(C(=O)C2=C3OCOC3=CC=C2Br)CC1 Z4305125307

>  <ref_pdb>  (17) 
Ax0310a

>  <ref_mols>  (17) 
Ax0351a

>  <rationale>  (17) 
Enamine real space elaborations around x0351.

$$$$
Z3939196665
     RDKit          3D

 23 26  0  0  0  0  0  0  0  0999 V2000
   10.0743   17.3198   17.3393 O   0  0  0  0  0  0  0  0  0  0  0  0
   10.4418   16.5486   18.2120 C   0  0  0  0  0  0  0  0  0  0  0  0
   11.3154   15.5421   17.9179 N   0  0  0  0  0  0  0  0  0  0  0  0
   11.3917   14.6375   19.0438 C   0  0  0  0  0  0  0  0  0  0  0  0
   10.6525   15.4226   20.1469 C   0  0  0  0  0  0  0  0  0  0  0  0
    9.3635   14.7461   20.6541 C   0  0  0  0  0  0  0  0  0  0  0  0
    9.6435   13.6010   21.6214 C   0  0  0  0  0  0  0  0  0  0  0  0
   10.4957   14.0948   22.6819 N   0  0  0  0  0  0  0  0  0  0  0  0
   10.1441   13.9262   24.0198 C   0  0  0  0  0  0  0  0  0  0  0  0
   10.7346   14.5505   24.8923 O   0  0  0  0  0  0  0  0  0  0  0  0
    9.2191   12.8498   24.4124 C   0  0  0  0  0  0  0  0  0  0  0  0
    8.1078   13.0246   25.2717 C   0  0  0  0  0  0  0  0  0  0  0  0
    7.2950   11.9294   25.6153 C   0  0  0  0  0  0  0  0  0  0  0  0
    5.7709   12.1749   26.7493 Br  0  0  0  0  0  0  0  0  0  0  0  0
    7.5944   10.6522   25.1171 C   0  0  0  0  0  0  0  0  0  0  0  0
    8.7039   10.4784   24.2917 C   0  0  0  0  0  0  0  0  0  0  0  0
    9.4851   11.5594   23.9417 C   0  0  0  0  0  0  0  0  0  0  0  0
   10.5004   11.1650   23.1330 O   0  0  0  0  0  0  0  0  0  0  0  0
   10.3684    9.7326   23.0406 C   0  0  0  0  0  0  0  0  0  0  0  0
    9.1693    9.3305   23.7321 O   0  0  0  0  0  0  0  0  0  0  0  0
   11.8094   14.5778   22.2679 C   0  0  0  0  0  0  0  0  0  0  0  0
   11.6346   15.7495   21.3008 C   0  0  0  0  0  0  0  0  0  0  0  0
   10.1044   16.5884   19.5087 O   0  0  0  0  0  0  0  0  0  0  0  0
  1  2  2  0
  2  3  1  0
  3  4  1  0
  4  5  1  0
  5  6  1  0
  6  7  1  0
  7  8  1  0
  8  9  1  0
  9 10  2  0
  9 11  1  0
 11 12  2  0
 12 13  1  0
 13 14  1  0
 13 15  2  0
 15 16  1  0
 16 17  2  0
 17 18  1  0
 18 19  1  0
 19 20  1  0
  8 21  1  0
 21 22  1  0
  5 23  1  0
 23  2  1  0
 22  5  1  0
 17 11  1  0
 20 16  1  0
M  END
>  <cnnaffinity>  (18) 
-5.70352

>  <cnnaffinityIC50>  (18) 
1979.1558756425707 nanomolar

>  <smiles>  (18) 
O=C1NCC2(CCN(C(=O)C3=CC(Br)=CC4=C3OCO4)CC2)O1 Z3939196665

>  <ref_pdb>  (18) 
Ax0310a

>  <ref_mols>  (18) 
Ax0351a

>  <rationale>  (18) 
Enamine real space elaborations around x0351.

$$$$
Z3363604494
     RDKit          3D

 23 26  0  0  0  0  0  0  0  0999 V2000
   11.1956   14.3114   24.8782 O   0  0  0  0  0  0  0  0  0  0  0  0
   10.5249   13.7547   24.0315 C   0  0  0  0  0  0  0  0  0  0  0  0
    9.4868   12.7121   24.3961 C   0  0  0  0  0  0  0  0  0  0  0  0
    9.6681   11.3954   24.0132 C   0  0  0  0  0  0  0  0  0  0  0  0
   10.6311   10.9054   23.1739 O   0  0  0  0  0  0  0  0  0  0  0  0
   10.5025    9.4890   23.2612 C   0  0  0  0  0  0  0  0  0  0  0  0
    9.2065    9.2052   23.7689 O   0  0  0  0  0  0  0  0  0  0  0  0
    8.7989   10.3732   24.3584 C   0  0  0  0  0  0  0  0  0  0  0  0
    7.6694   10.6139   25.1003 C   0  0  0  0  0  0  0  0  0  0  0  0
    7.4317   11.9409   25.4815 C   0  0  0  0  0  0  0  0  0  0  0  0
    8.3185   12.9586   25.1338 C   0  0  0  0  0  0  0  0  0  0  0  0
    7.9210   14.5814   25.6105 Cl  0  0  0  0  0  0  0  0  0  0  0  0
   10.6477   14.0076   22.6911 N   0  0  0  0  0  0  0  0  0  0  0  0
   11.8643   14.5805   22.1256 C   0  0  0  0  0  0  0  0  0  0  0  0
   11.5247   15.8050   21.2693 C   0  0  0  0  0  0  0  0  0  0  0  0
   10.4708   15.4926   20.1692 C   0  0  0  0  0  0  0  0  0  0  0  0
    9.8422   16.7259   19.4700 C   0  0  0  0  0  0  0  0  0  0  0  0
   10.2506   16.7121   17.9857 C   0  0  0  0  0  0  0  0  0  0  0  0
   11.1259   15.5641   17.9081 N   0  0  0  0  0  0  0  0  0  0  0  0
   11.2290   14.7987   19.0234 C   0  0  0  0  0  0  0  0  0  0  0  0
   11.8905   13.7789   19.0904 O   0  0  0  0  0  0  0  0  0  0  0  0
    9.3113   14.6875   20.7754 C   0  0  0  0  0  0  0  0  0  0  0  0
    9.7364   13.5423   21.6683 C   0  0  0  0  0  0  0  0  0  0  0  0
  1  2  2  0
  2  3  1  0
  3  4  2  0
  4  5  1  0
  5  6  1  0
  6  7  1  0
  7  8  1  0
  8  9  2  0
  9 10  1  0
 10 11  2  0
 11 12  1  0
  2 13  1  0
 13 14  1  0
 14 15  1  0
 15 16  1  0
 16 17  1  0
 17 18  1  0
 18 19  1  0
 19 20  1  0
 20 21  2  0
 16 22  1  0
 22 23  1  0
 11  3  1  0
 23 13  1  0
  8  4  1  0
 20 16  1  0
M  END
>  <cnnaffinity>  (19) 
-5.70287

>  <cnnaffinityIC50>  (19) 
1982.1202570852547 nanomolar

>  <smiles>  (19) 
O=C(C1=C2OCOC2=CC=C1Cl)N1CCC2(CCNC2=O)CC1 Z3363604494

>  <ref_pdb>  (19) 
Ax0310a

>  <ref_mols>  (19) 
Ax0351a

>  <rationale>  (19) 
Enamine real space elaborations around x0351.

$$$$
Z1240430611
     RDKit          3D

 22 25  0  0  0  0  0  0  0  0999 V2000
   10.6701   14.4901   24.9885 O   0  0  0  0  0  0  0  0  0  0  0  0
   10.1421   13.7934   24.1374 C   0  0  0  0  0  0  0  0  0  0  0  0
    9.2069   12.6571   24.5145 C   0  0  0  0  0  0  0  0  0  0  0  0
    8.1128   12.8414   25.3764 C   0  0  0  0  0  0  0  0  0  0  0  0
    7.2997   11.7745   25.7498 C   0  0  0  0  0  0  0  0  0  0  0  0
    7.5460   10.4666   25.3046 C   0  0  0  0  0  0  0  0  0  0  0  0
    8.6342   10.2944   24.4821 C   0  0  0  0  0  0  0  0  0  0  0  0
    9.4401   11.3546   24.0963 C   0  0  0  0  0  0  0  0  0  0  0  0
   10.4077   10.8973   23.2389 O   0  0  0  0  0  0  0  0  0  0  0  0
   10.3138    9.4745   23.2827 C   0  0  0  0  0  0  0  0  0  0  0  0
    9.0701    9.1402   23.8830 O   0  0  0  0  0  0  0  0  0  0  0  0
   10.3407   13.9945   22.7977 N   0  0  0  0  0  0  0  0  0  0  0  0
   11.5989   14.5247   22.2816 C   0  0  0  0  0  0  0  0  0  0  0  0
   11.3734   15.5842   21.1935 C   0  0  0  0  0  0  0  0  0  0  0  0
   10.3249   15.1624   20.1375 C   0  0  0  0  0  0  0  0  0  0  0  0
    9.8560   16.2754   19.2353 C   0  0  0  0  0  0  0  0  0  0  0  0
    8.9069   17.2686   19.4013 C   0  0  0  0  0  0  0  0  0  0  0  0
    8.8884   17.9610   18.1768 C   0  0  0  0  0  0  0  0  0  0  0  0
    9.7457   17.4532   17.3009 N   0  0  0  0  0  0  0  0  0  0  0  0
   10.3175   16.4382   17.9676 N   0  0  0  0  0  0  0  0  0  0  0  0
    9.0976   14.5234   20.7840 C   0  0  0  0  0  0  0  0  0  0  0  0
    9.5133   13.4369   21.7528 C   0  0  0  0  0  0  0  0  0  0  0  0
  1  2  2  0
  2  3  1  0
  3  4  2  0
  4  5  1  0
  5  6  2  0
  6  7  1  0
  7  8  2  0
  8  9  1  0
  9 10  1  0
 10 11  1  0
  2 12  1  0
 12 13  1  0
 13 14  1  0
 14 15  1  0
 15 16  1  0
 16 17  2  0
 17 18  1  0
 18 19  2  0
 19 20  1  0
 15 21  1  0
 21 22  1  0
  8  3  1  0
 22 12  1  0
 11  7  1  0
 20 16  1  0
M  END
>  <cnnaffinity>  (20) 
-5.69867

>  <cnnaffinityIC50>  (20) 
2001.3820483184213 nanomolar

>  <smiles>  (20) 
O=C(C1=CC=CC2=C1OCO2)N1CCC(C2=CC=NN2)CC1 Z1240430611

>  <ref_pdb>  (20) 
Ax0310a

>  <ref_mols>  (20) 
Ax0351a

>  <rationale>  (20) 
Enamine real space elaborations around x0351.

$$$$
Z5499340203
     RDKit          3D

 23 25  0  0  0  0  0  0  0  0999 V2000
    9.6995   16.8498   19.0909 C   0  0  0  0  0  0  0  0  0  0  0  0
    9.6029   15.3427   19.2628 C   0  0  0  0  0  0  0  0  0  0  0  0
   10.9611   14.8148   19.4400 N   0  0  0  0  0  0  0  0  0  0  0  0
   11.8800   14.6449   18.4320 C   0  0  0  0  0  0  0  0  0  0  0  0
   13.0550   14.4180   18.9512 N   0  0  0  0  0  0  0  0  0  0  0  0
   12.9384   14.4389   20.3123 N   0  0  0  0  0  0  0  0  0  0  0  0
   11.6861   14.6790   20.6141 C   0  0  0  0  0  0  0  0  0  0  0  0
   11.2022   14.8908   22.0413 C   0  0  0  0  0  0  0  0  0  0  0  0
   10.5025   13.7516   22.6699 N   0  0  0  0  0  0  0  0  0  0  0  0
    9.8481   13.8202   23.8928 C   0  0  0  0  0  0  0  0  0  0  0  0
    9.8784   14.8565   24.5389 O   0  0  0  0  0  0  0  0  0  0  0  0
    9.0666   12.6827   24.3722 C   0  0  0  0  0  0  0  0  0  0  0  0
    9.4146   11.4071   23.9376 C   0  0  0  0  0  0  0  0  0  0  0  0
   10.4374   11.0924   23.1089 O   0  0  0  0  0  0  0  0  0  0  0  0
   10.3539    9.6631   22.9625 C   0  0  0  0  0  0  0  0  0  0  0  0
   10.1306    9.3764   21.6534 F   0  0  0  0  0  0  0  0  0  0  0  0
   11.5106    9.0742   23.3603 F   0  0  0  0  0  0  0  0  0  0  0  0
    9.2603    9.1740   23.7694 O   0  0  0  0  0  0  0  0  0  0  0  0
    8.7259   10.2850   24.3381 C   0  0  0  0  0  0  0  0  0  0  0  0
    7.6474   10.4035   25.2127 C   0  0  0  0  0  0  0  0  0  0  0  0
    7.2807   11.6762   25.6764 C   0  0  0  0  0  0  0  0  0  0  0  0
    7.9750   12.8201   25.2534 C   0  0  0  0  0  0  0  0  0  0  0  0
    7.4217   14.5462   25.8772 Br  0  0  0  0  0  0  0  0  0  0  0  0
  1  2  1  0
  2  3  1  0
  3  4  1  0
  4  5  2  0
  5  6  1  0
  6  7  2  0
  7  8  1  0
  8  9  1  0
  9 10  1  0
 10 11  2  0
 10 12  1  0
 12 13  2  0
 13 14  1  0
 14 15  1  0
 15 16  1  0
 15 17  1  0
 15 18  1  0
 18 19  1  0
 19 20  2  0
 20 21  1  0
 21 22  2  0
 22 23  1  0
  7  3  1  0
 22 12  1  0
 19 13  1  0
M  END
>  <cnnaffinity>  (21) 
-5.69557

>  <cnnaffinityIC50>  (21) 
2015.7190489551044 nanomolar

>  <smiles>  (21) 
CCN1C=NN=C1CNC(=O)C1=C2OC(F)(F)OC2=CC=C1Br Z5499340203

>  <ref_pdb>  (21) 
Ax0310a

>  <ref_mols>  (21) 
Ax0351a

>  <rationale>  (21) 
Enamine real space elaborations around x0351.

$$$$
FC1=CC=C(NC2=NN3CCCCC3=C2)C(=C1)S(=O)(=O)C(F)(F)F
     RDKit          3D

 24 26  0  0  0  0  0  0  0  0999 V2000
    3.4711   14.3131   28.3072 F   0  0  0  0  0  0  0  0  0  0  0  0
    4.1653   13.2744   27.8119 C   0  0  0  0  0  0  0  0  0  0  0  0
    4.2784   13.1335   26.4379 C   0  0  0  0  0  0  0  0  0  0  0  0
    5.0241   12.0733   25.9400 C   0  0  0  0  0  0  0  0  0  0  0  0
    5.6501   11.1454   26.7795 C   0  0  0  0  0  0  0  0  0  0  0  0
    6.4099   10.1254   26.2023 N   0  0  0  0  0  0  0  0  0  0  0  0
    7.4382   10.3905   25.3015 C   0  0  0  0  0  0  0  0  0  0  0  0
    8.0444    9.3876   24.6656 N   0  0  0  0  0  0  0  0  0  0  0  0
    8.9608    9.9963   23.8908 N   0  0  0  0  0  0  0  0  0  0  0  0
    9.8359    9.2188   23.0362 C   0  0  0  0  0  0  0  0  0  0  0  0
   10.5119   10.1167   22.0034 C   0  0  0  0  0  0  0  0  0  0  0  0
   11.0860   11.3584   22.6762 C   0  0  0  0  0  0  0  0  0  0  0  0
    9.9738   12.1916   23.3115 C   0  0  0  0  0  0  0  0  0  0  0  0
    8.9904   11.3378   24.0582 C   0  0  0  0  0  0  0  0  0  0  0  0
    7.9930   11.6427   24.9559 C   0  0  0  0  0  0  0  0  0  0  0  0
    5.4807   11.2971   28.1632 C   0  0  0  0  0  0  0  0  0  0  0  0
    4.7652   12.3781   28.6787 C   0  0  0  0  0  0  0  0  0  0  0  0
    6.2117   10.2116   29.3518 S   0  0  0  0  0  6  0  0  0  0  0  0
    6.0809   10.8497   30.6518 O   0  0  0  0  0  0  0  0  0  0  0  0
    7.4759    9.7054   28.8378 O   0  0  0  0  0  0  0  0  0  0  0  0
    5.0602    8.7826   29.4535 C   0  0  0  0  0  0  0  0  0  0  0  0
    4.8553    8.2376   28.2556 F   0  0  0  0  0  0  0  0  0  0  0  0
    5.6069    7.8870   30.2613 F   0  0  0  0  0  0  0  0  0  0  0  0
    3.9031    9.1869   29.9626 F   0  0  0  0  0  0  0  0  0  0  0  0
  1  2  1  0
  2  3  2  0
  3  4  1  0
  4  5  2  0
  5  6  1  0
  6  7  1  0
  7  8  2  0
  8  9  1  0
  9 10  1  0
 10 11  1  0
 11 12  1  0
 12 13  1  0
 13 14  1  0
 14 15  2  0
  5 16  1  0
 16 17  2  0
 16 18  1  0
 18 19  2  0
 18 20  2  0
 18 21  1  0
 21 22  1  0
 21 23  1  0
 21 24  1  0
 17  2  1  0
 15  7  1  0
 14  9  1  0
M  END
>  <cnnaffinity>  (22) 
-5.92061

>  <cnnaffinityIC50>  (22) 
1200.5769471371716 nanomolar

>  <smiles>  (22) 
FC1=CC=C(NC2=NN3CCCCC3=C2)C(=C1)S(=O)(=O)C(F)(F)F

>  <ref_pdb>  (22) 
Ax0310a

>  <ref_mols>  (22) 
Ax0365a

>  <rationale>  (22) 
Enamine real space elaborations around x0365.

$$$$
CN1N=C(NC2=CC=C(C=C2S(C)(=O)=O)S(C)(=O)=O)C=C1C1CC1
     RDKit          3D

 24 26  0  0  0  0  0  0  0  0999 V2000
    9.8635    9.1535   23.0641 C   0  0  0  0  0  0  0  0  0  0  0  0
    9.0623   10.0129   23.9028 N   0  0  0  0  0  0  0  0  0  0  0  0
    8.0484    9.4440   24.5869 N   0  0  0  0  0  0  0  0  0  0  0  0
    7.4433   10.4440   25.2188 C   0  0  0  0  0  0  0  0  0  0  0  0
    6.3316   10.1655   26.0005 N   0  0  0  0  0  0  0  0  0  0  0  0
    5.4396   11.0905   26.5151 C   0  0  0  0  0  0  0  0  0  0  0  0
    5.1857   12.3014   25.8564 C   0  0  0  0  0  0  0  0  0  0  0  0
    4.3808   13.2712   26.4329 C   0  0  0  0  0  0  0  0  0  0  0  0
    3.7623   13.0064   27.6504 C   0  0  0  0  0  0  0  0  0  0  0  0
    3.9406   11.7933   28.2973 C   0  0  0  0  0  0  0  0  0  0  0  0
    4.7650   10.8350   27.7230 C   0  0  0  0  0  0  0  0  0  0  0  0
    5.1452    9.2786   28.5254 S   0  0  0  0  0  6  0  0  0  0  0  0
    4.2188    9.2984   30.0387 C   0  0  0  0  0  0  0  0  0  0  0  0
    4.6242    8.2025   27.6824 O   0  0  0  0  0  0  0  0  0  0  0  0
    6.5574    9.2993   28.8803 O   0  0  0  0  0  0  0  0  0  0  0  0
    2.7240   14.2301   28.4095 S   0  0  0  0  0  6  0  0  0  0  0  0
    1.0866   13.8904   27.7461 C   0  0  0  0  0  0  0  0  0  0  0  0
    2.6942   13.9442   29.8420 O   0  0  0  0  0  0  0  0  0  0  0  0
    3.1371   15.5318   27.8947 O   0  0  0  0  0  0  0  0  0  0  0  0
    8.1089   11.6700   24.9736 C   0  0  0  0  0  0  0  0  0  0  0  0
    9.1296   11.3566   24.0925 C   0  0  0  0  0  0  0  0  0  0  0  0
   10.0906   12.2348   23.4053 C   0  0  0  0  0  0  0  0  0  0  0  0
    9.6610   13.6150   22.9768 C   0  0  0  0  0  0  0  0  0  0  0  0
   10.6284   13.4570   24.1021 C   0  0  0  0  0  0  0  0  0  0  0  0
  1  2  1  0
  2  3  1  0
  3  4  2  0
  4  5  1  0
  5  6  1  0
  6  7  2  0
  7  8  1  0
  8  9  2  0
  9 10  1  0
 10 11  2  0
 11 12  1  0
 12 13  1  0
 12 14  2  0
 12 15  2  0
  9 16  1  0
 16 17  1  0
 16 18  2  0
 16 19  2  0
  4 20  1  0
 20 21  2  0
 21 22  1  0
 22 23  1  0
 23 24  1  0
 21  2  1  0
 24 22  1  0
 11  6  1  0
M  END
>  <cnnaffinity>  (23) 
-5.90193

>  <cnnaffinityIC50>  (23) 
1253.3431737133744 nanomolar

>  <smiles>  (23) 
CN1N=C(NC2=CC=C(C=C2S(C)(=O)=O)S(C)(=O)=O)C=C1C1CC1

>  <ref_pdb>  (23) 
Ax0310a

>  <ref_mols>  (23) 
Ax0365a

>  <rationale>  (23) 
Enamine real space elaborations around x0365.

$$$$
FC(F)(F)S(=O)(=O)C1=CC=CC=C1NC1=NN2CCCCC2=C1
     RDKit          3D

 23 25  0  0  0  0  0  0  0  0999 V2000
    3.8681    9.1749   29.9313 F   0  0  0  0  0  0  0  0  0  0  0  0
    5.0418    8.7840   29.4496 C   0  0  0  0  0  0  0  0  0  0  0  0
    4.8604    8.2417   28.2472 F   0  0  0  0  0  0  0  0  0  0  0  0
    5.5791    7.8836   30.2592 F   0  0  0  0  0  0  0  0  0  0  0  0
    6.1907   10.2183   29.3742 S   0  0  0  0  0  6  0  0  0  0  0  0
    7.4577    9.7101   28.8661 O   0  0  0  0  0  0  0  0  0  0  0  0
    6.0614   10.8369   30.6841 O   0  0  0  0  0  0  0  0  0  0  0  0
    5.4736   11.3117   28.1833 C   0  0  0  0  0  0  0  0  0  0  0  0
    4.7474   12.3932   28.6777 C   0  0  0  0  0  0  0  0  0  0  0  0
    4.1468   13.3042   27.8181 C   0  0  0  0  0  0  0  0  0  0  0  0
    4.2823   13.1261   26.4450 C   0  0  0  0  0  0  0  0  0  0  0  0
    5.0315   12.0667   25.9544 C   0  0  0  0  0  0  0  0  0  0  0  0
    5.6649   11.1557   26.8047 C   0  0  0  0  0  0  0  0  0  0  0  0
    6.4385   10.1409   26.2456 N   0  0  0  0  0  0  0  0  0  0  0  0
    7.4475   10.4016   25.3233 C   0  0  0  0  0  0  0  0  0  0  0  0
    8.0495    9.3964   24.6890 N   0  0  0  0  0  0  0  0  0  0  0  0
    8.9559   10.0005   23.8993 N   0  0  0  0  0  0  0  0  0  0  0  0
    9.8310    9.2184   23.0477 C   0  0  0  0  0  0  0  0  0  0  0  0
   10.4997   10.1135   22.0056 C   0  0  0  0  0  0  0  0  0  0  0  0
   11.0811   11.3559   22.6748 C   0  0  0  0  0  0  0  0  0  0  0  0
    9.9707   12.1919   23.3103 C   0  0  0  0  0  0  0  0  0  0  0  0
    8.9841   11.3434   24.0560 C   0  0  0  0  0  0  0  0  0  0  0  0
    7.9936   11.6532   24.9610 C   0  0  0  0  0  0  0  0  0  0  0  0
  1  2  1  0
  2  3  1  0
  2  4  1  0
  2  5  1  0
  5  6  2  0
  5  7  2  0
  5  8  1  0
  8  9  2  0
  9 10  1  0
 10 11  2  0
 11 12  1  0
 12 13  2  0
 13 14  1  0
 14 15  1  0
 15 16  2  0
 16 17  1  0
 17 18  1  0
 18 19  1  0
 19 20  1  0
 20 21  1  0
 21 22  1  0
 22 23  2  0
 13  8  1  0
 23 15  1  0
 22 17  1  0
M  END
>  <cnnaffinity>  (24) 
-5.79907

>  <cnnaffinityIC50>  (24) 
1588.2907257469365 nanomolar

>  <smiles>  (24) 
FC(F)(F)S(=O)(=O)C1=CC=CC=C1NC1=NN2CCCCC2=C1

>  <ref_pdb>  (24) 
Ax0310a

>  <ref_mols>  (24) 
Ax0365a

>  <rationale>  (24) 
Enamine real space elaborations around x0365.

$$$$
CC1=CC(NC2=CC=CC=C2S(=N)(=O)C(F)(F)F)=NN1CC(N)=O
     RDKit          3D

 24 25  0  0  0  0  0  0  0  0999 V2000
    9.7912   12.6022   23.2253 C   0  0  0  0  0  0  0  0  0  0  0  0
    8.8812   11.6768   23.9733 C   0  0  0  0  0  0  0  0  0  0  0  0
    7.9807   11.9523   24.9731 C   0  0  0  0  0  0  0  0  0  0  0  0
    7.5136   10.6922   25.4002 C   0  0  0  0  0  0  0  0  0  0  0  0
    6.6446   10.4366   26.4536 N   0  0  0  0  0  0  0  0  0  0  0  0
    5.6856   11.3637   26.8481 C   0  0  0  0  0  0  0  0  0  0  0  0
    5.0337   12.1974   25.9357 C   0  0  0  0  0  0  0  0  0  0  0  0
    4.1450   13.1740   26.3713 C   0  0  0  0  0  0  0  0  0  0  0  0
    3.8858   13.3473   27.7287 C   0  0  0  0  0  0  0  0  0  0  0  0
    4.4892   12.4989   28.6489 C   0  0  0  0  0  0  0  0  0  0  0  0
    5.3284   11.4834   28.2050 C   0  0  0  0  0  0  0  0  0  0  0  0
    6.0561   10.4363   29.4261 S   0  0  1  0  0  6  0  0  0  0  0  0
    7.3503    9.6348   28.7965 N   0  0  0  0  0  0  0  0  0  0  0  0
    6.1299   11.0745   30.7483 O   0  0  0  0  0  0  0  0  0  0  0  0
    4.9867    8.9426   29.4393 C   0  0  0  0  0  0  0  0  0  0  0  0
    5.4853    8.0771   30.3100 F   0  0  0  0  0  0  0  0  0  0  0  0
    3.7315    9.2278   29.7818 F   0  0  0  0  0  0  0  0  0  0  0  0
    4.9860    8.4016   28.2235 F   0  0  0  0  0  0  0  0  0  0  0  0
    8.0746    9.7024   24.7119 N   0  0  0  0  0  0  0  0  0  0  0  0
    8.8668   10.3245   23.8077 N   0  0  0  0  0  0  0  0  0  0  0  0
    9.5621    9.5482   22.8044 C   0  0  0  0  0  0  0  0  0  0  0  0
   11.0169    9.2436   23.1811 C   0  0  0  0  0  0  0  0  0  0  0  0
   11.3915    7.9494   23.0516 N   0  0  0  0  0  0  0  0  0  0  0  0
   11.7880   10.1148   23.5386 O   0  0  0  0  0  0  0  0  0  0  0  0
  1  2  1  0
  2  3  2  0
  3  4  1  0
  4  5  1  0
  5  6  1  0
  6  7  2  0
  7  8  1  0
  8  9  2  0
  9 10  1  0
 10 11  2  0
 11 12  1  0
 12 13  2  0
 12 14  2  0
 12 15  1  1
 15 16  1  0
 15 17  1  0
 15 18  1  0
  4 19  2  0
 19 20  1  0
 20 21  1  0
 21 22  1  0
 22 23  1  0
 22 24  2  0
 20  2  1  0
 11  6  1  0
M  END
>  <cnnaffinity>  (25) 
-5.79559

>  <cnnaffinityIC50>  (25) 
1601.068820214884 nanomolar

>  <smiles>  (25) 
CC1=CC(NC2=CC=CC=C2S(=N)(=O)C(F)(F)F)=NN1CC(N)=O

>  <ref_pdb>  (25) 
Ax0310a

>  <ref_mols>  (25) 
Ax0365a

>  <rationale>  (25) 
Enamine real space elaborations around x0365.

$$$$
CS(=O)(=O)C1=CC=C(NC2=NN3CCCCC3=C2)C(=C1)S(C)(=O)=O
     RDKit          3D

 24 26  0  0  0  0  0  0  0  0999 V2000
    4.4594   15.8589   28.8893 C   0  0  0  0  0  0  0  0  0  0  0  0
    3.2439   14.5844   28.5775 S   0  0  0  0  0  6  0  0  0  0  0  0
    2.7732   14.1101   29.8758 O   0  0  0  0  0  0  0  0  0  0  0  0
    2.3079   15.0874   27.5796 O   0  0  0  0  0  0  0  0  0  0  0  0
    4.1636   13.2567   27.8330 C   0  0  0  0  0  0  0  0  0  0  0  0
    4.2771   13.1483   26.4477 C   0  0  0  0  0  0  0  0  0  0  0  0
    5.0285   12.1054   25.9278 C   0  0  0  0  0  0  0  0  0  0  0  0
    5.6450   11.1457   26.7438 C   0  0  0  0  0  0  0  0  0  0  0  0
    6.3815   10.1232   26.1388 N   0  0  0  0  0  0  0  0  0  0  0  0
    7.4215   10.3891   25.2576 C   0  0  0  0  0  0  0  0  0  0  0  0
    8.0294    9.3900   24.6212 N   0  0  0  0  0  0  0  0  0  0  0  0
    8.9631   10.0017   23.8712 N   0  0  0  0  0  0  0  0  0  0  0  0
    9.8342    9.2175   23.0236 C   0  0  0  0  0  0  0  0  0  0  0  0
   10.5255   10.1198   22.0072 C   0  0  0  0  0  0  0  0  0  0  0  0
   11.0985   11.3623   22.6829 C   0  0  0  0  0  0  0  0  0  0  0  0
    9.9881   12.2020   23.3128 C   0  0  0  0  0  0  0  0  0  0  0  0
    8.9999   11.3434   24.0512 C   0  0  0  0  0  0  0  0  0  0  0  0
    7.9929   11.6416   24.9409 C   0  0  0  0  0  0  0  0  0  0  0  0
    5.4914   11.2711   28.1317 C   0  0  0  0  0  0  0  0  0  0  0  0
    4.7705   12.3306   28.6664 C   0  0  0  0  0  0  0  0  0  0  0  0
    6.2610   10.1738   29.3162 S   0  0  0  0  0  6  0  0  0  0  0  0
    5.2558    8.6908   29.2593 C   0  0  0  0  0  0  0  0  0  0  0  0
    7.6068    9.8460   28.8645 O   0  0  0  0  0  0  0  0  0  0  0  0
    6.0464   10.7684   30.6357 O   0  0  0  0  0  0  0  0  0  0  0  0
  1  2  1  0
  2  3  2  0
  2  4  2  0
  2  5  1  0
  5  6  2  0
  6  7  1  0
  7  8  2  0
  8  9  1  0
  9 10  1  0
 10 11  2  0
 11 12  1  0
 12 13  1  0
 13 14  1  0
 14 15  1  0
 15 16  1  0
 16 17  1  0
 17 18  2  0
  8 19  1  0
 19 20  2  0
 19 21  1  0
 21 22  1  0
 21 23  2  0
 21 24  2  0
 20  5  1  0
 18 10  1  0
 17 12  1  0
M  END
>  <cnnaffinity>  (26) 
-5.74363

>  <cnnaffinityIC50>  (26) 
1804.554488043311 nanomolar

>  <smiles>  (26) 
CS(=O)(=O)C1=CC=C(NC2=NN3CCCCC3=C2)C(=C1)S(C)(=O)=O

>  <ref_pdb>  (26) 
Ax0310a

>  <ref_mols>  (26) 
Ax0365a

>  <rationale>  (26) 
Enamine real space elaborations around x0365.

$$$$
Z5026145719
     RDKit          3D

 23 25  0  0  0  0  0  0  0  0999 V2000
   10.8187    8.1574   23.2617 N   0  0  0  0  0  0  0  0  0  0  0  0
   10.3346    9.2738   22.6370 C   0  0  0  0  0  0  0  0  0  0  0  0
   10.6403    9.3866   21.4620 O   0  0  0  0  0  0  0  0  0  0  0  0
    9.6025   10.3199   23.3713 C   0  0  0  0  0  0  0  0  0  0  0  0
    8.8923   10.0215   24.5484 C   0  0  0  0  0  0  0  0  0  0  0  0
    8.2076   11.0169   25.2497 C   0  0  0  0  0  0  0  0  0  0  0  0
    7.1455   10.5433   26.7659 Br  0  0  0  0  0  0  0  0  0  0  0  0
    8.2755   12.3439   24.8125 C   0  0  0  0  0  0  0  0  0  0  0  0
    8.9712   12.6730   23.6468 C   0  0  0  0  0  0  0  0  0  0  0  0
    8.9795   13.9739   23.2099 O   0  0  0  0  0  0  0  0  0  0  0  0
   10.2585   14.6556   23.0714 C   0  0  1  0  0  0  0  0  0  0  0  0
   11.5395   13.7848   23.1075 C   0  0  0  0  0  0  0  0  0  0  0  0
   12.5012   14.3594   22.0597 C   0  0  0  0  0  0  0  0  0  0  0  0
   11.6691   15.1495   21.1693 N   0  0  0  0  0  0  0  0  0  0  0  0
   12.2479   16.1643   20.3019 C   0  0  0  0  0  0  0  0  0  0  0  0
   12.8759   15.5938   19.0254 C   0  0  0  0  0  0  0  0  0  0  0  0
   14.0522   16.4429   18.4723 C   0  0  0  0  0  0  0  0  0  0  0  0
   14.0017   17.9289   18.7942 C   0  0  0  0  0  0  0  0  0  0  0  0
   13.4927   18.2377   20.1957 C   0  0  0  0  0  0  0  0  0  0  0  0
   13.2169   17.0351   21.0751 C   0  0  0  0  0  0  0  0  0  0  0  0
   10.4336   15.3922   21.7417 C   0  0  0  0  0  0  0  0  0  0  0  0
    9.6531   16.2269   21.2840 O   0  0  0  0  0  0  0  0  0  0  0  0
    9.5906   11.6521   22.9138 C   0  0  0  0  0  0  0  0  0  0  0  0
  1  2  1  0
  2  3  2  0
  2  4  1  0
  4  5  2  0
  5  6  1  0
  6  7  1  0
  6  8  2  0
  8  9  1  0
  9 10  1  0
 11 10  1  6
 11 12  1  0
 12 13  1  0
 13 14  1  0
 14 15  1  0
 15 16  1  0
 16 17  1  0
 17 18  1  0
 18 19  1  0
 19 20  1  0
 14 21  1  0
 21 22  2  0
  9 23  2  0
 23  4  1  0
 21 11  1  0
 20 15  1  0
M  END
>  <cnnaffinity>  (27) 
-5.9284

>  <cnnaffinityIC50>  (27) 
1179.2340206530025 nanomolar

>  <smiles>  (27) 
NC(=O)C1=CC(Br)=CC(OC2CCN(C3CCCCC3)C2=O)=C1 Z5026145719

>  <ref_pdb>  (27) 
Ax0528a

>  <ref_mols>  (27) 
Ax0528a,Ax0556a

>  <rationale>  (27) 
Enamine real space elaborations around a merge of x0528 and x0556.

$$$$
Z2721901805
     RDKit          3D

 23 25  0  0  0  0  0  0  0  0999 V2000
   10.7349    7.9265   23.3149 N   0  0  0  0  0  0  0  0  0  0  0  0
   10.2383    9.0435   22.7057 C   0  0  0  0  0  0  0  0  0  0  0  0
   10.5011    9.1661   21.5161 O   0  0  0  0  0  0  0  0  0  0  0  0
    9.5839   10.1193   23.4604 C   0  0  0  0  0  0  0  0  0  0  0  0
    8.8683    9.9240   24.6539 C   0  0  0  0  0  0  0  0  0  0  0  0
    8.2938   11.0173   25.3170 C   0  0  0  0  0  0  0  0  0  0  0  0
    8.4154   12.3178   24.7986 C   0  0  0  0  0  0  0  0  0  0  0  0
    7.6069   13.7777   25.7346 Br  0  0  0  0  0  0  0  0  0  0  0  0
    9.1396   12.5311   23.6137 C   0  0  0  0  0  0  0  0  0  0  0  0
    9.3194   13.7908   23.0752 O   0  0  0  0  0  0  0  0  0  0  0  0
   10.3539   13.8510   22.0604 C   0  0  2  0  0  0  0  0  0  0  0  0
   11.7290   13.5813   22.6980 C   0  0  0  0  0  0  0  0  0  0  0  0
   12.7321   14.4580   21.9465 C   0  0  0  0  0  0  0  0  0  0  0  0
   11.9152   15.4522   21.2635 N   0  0  0  0  0  0  0  0  0  0  0  0
   12.4644   16.4043   20.3137 C   0  0  0  0  0  0  0  0  0  0  0  0
   12.9595   15.6980   19.0302 C   0  0  0  0  0  0  0  0  0  0  0  0
   14.1666   16.4413   18.4101 C   0  0  0  0  0  0  0  0  0  0  0  0
   14.0292   17.9326   18.5893 C   0  0  0  0  0  0  0  0  0  0  0  0
   14.1967   18.2397   20.0682 C   0  0  0  0  0  0  0  0  0  0  0  0
   13.5761   17.1882   21.0026 C   0  0  0  0  0  0  0  0  0  0  0  0
   10.5679   15.1646   21.3225 C   0  0  0  0  0  0  0  0  0  0  0  0
    9.7297   15.7565   20.6479 O   0  0  0  0  0  0  0  0  0  0  0  0
    9.7031   11.4208   22.9760 C   0  0  0  0  0  0  0  0  0  0  0  0
  1  2  1  0
  2  3  2  0
  2  4  1  0
  4  5  2  0
  5  6  1  0
  6  7  2  0
  7  8  1  0
  7  9  1  0
  9 10  1  0
 11 10  1  1
 11 12  1  0
 12 13  1  0
 13 14  1  0
 14 15  1  0
 15 16  1  0
 16 17  1  0
 17 18  1  0
 18 19  1  0
 19 20  1  0
 14 21  1  0
 21 22  2  0
  9 23  2  0
 23  4  1  0
 21 11  1  0
 20 15  1  0
M  END
>  <cnnaffinity>  (28) 
-5.92659

>  <cnnaffinityIC50>  (28) 
1184.158945162197 nanomolar

>  <smiles>  (28) 
NC(=O)C1=CC=C(Br)C(OC2CCN(C3CCCCC3)C2=O)=C1 Z2721901805

>  <ref_pdb>  (28) 
Ax0528a

>  <ref_mols>  (28) 
Ax0528a,Ax0556a

>  <rationale>  (28) 
Enamine real space elaborations around a merge of x0528 and x0556.

$$$$
Z2748966443
     RDKit          3D

 27 29  0  0  0  0  0  0  0  0999 V2000
    3.2195    7.4628   25.8115 C   0  0  0  0  0  0  0  0  0  0  0  0
    4.4952    8.1109   25.8982 O   0  0  0  0  0  0  0  0  0  0  0  0
    4.9043    8.5273   27.1464 C   0  0  0  0  0  0  0  0  0  0  0  0
    4.4425    7.9409   28.3412 C   0  0  0  0  0  0  0  0  0  0  0  0
    3.2509    6.4391   28.3182 Br  0  0  0  0  0  0  0  0  0  0  0  0
    4.8680    8.4443   29.5734 C   0  0  0  0  0  0  0  0  0  0  0  0
    5.7556    9.5205   29.6429 C   0  0  0  0  0  0  0  0  0  0  0  0
    6.2995   10.2054   31.3425 Br  0  0  0  0  0  0  0  0  0  0  0  0
    6.2363   10.0865   28.4609 C   0  0  0  0  0  0  0  0  0  0  0  0
    5.8208    9.5932   27.2122 C   0  0  0  0  0  0  0  0  0  0  0  0
    6.3075   10.2147   25.9287 C   0  0  0  0  0  0  0  0  0  0  0  0
    7.7729   10.2100   25.8280 N   0  0  0  0  0  0  0  0  0  0  0  0
    8.3631   11.2192   25.0676 C   0  0  0  0  0  0  0  0  0  0  0  0
    8.0008   12.5513   25.2964 C   0  0  0  0  0  0  0  0  0  0  0  0
    8.4738   13.5775   24.4638 C   0  0  0  0  0  0  0  0  0  0  0  0
    9.3054   13.2773   23.3821 C   0  0  0  0  0  0  0  0  0  0  0  0
    9.6780   14.2388   22.4807 O   0  0  0  0  0  0  0  0  0  0  0  0
   10.7297   15.1296   22.9110 C   0  0  1  0  0  0  0  0  0  0  0  0
   12.0778   14.4010   23.0668 C   0  0  0  0  0  0  0  0  0  0  0  0
   13.1633   15.3574   22.5515 C   0  0  0  0  0  0  0  0  0  0  0  0
   12.4504   16.3448   21.7570 N   0  0  0  0  0  0  0  0  0  0  0  0
   13.0800   17.0706   20.6603 C   0  0  0  0  0  0  0  0  0  0  0  0
   11.0799   16.2050   21.8766 C   0  0  0  0  0  0  0  0  0  0  0  0
   10.2993   16.8189   21.1492 O   0  0  0  0  0  0  0  0  0  0  0  0
    9.6968   11.9541   23.1766 C   0  0  0  0  0  0  0  0  0  0  0  0
    9.2609   10.9213   24.0224 C   0  0  0  0  0  0  0  0  0  0  0  0
    9.7308    9.5200   23.7394 C   0  0  0  0  0  0  0  0  0  0  0  0
  1  2  1  0
  2  3  1  0
  3  4  2  0
  4  5  1  0
  4  6  1  0
  6  7  2  0
  7  8  1  0
  7  9  1  0
  9 10  2  0
 10 11  1  0
 11 12  1  0
 12 13  1  0
 13 14  2  0
 14 15  1  0
 15 16  2  0
 16 17  1  0
 18 17  1  6
 18 19  1  0
 19 20  1  0
 20 21  1  0
 21 22  1  0
 21 23  1  0
 23 24  2  0
 16 25  1  0
 25 26  2  0
 26 27  1  0
 10  3  1  0
 26 13  1  0
 23 18  1  0
M  END
>  <cnnaffinity>  (29) 
-5.84683

>  <cnnaffinityIC50>  (29) 
1422.8856517257375 nanomolar

>  <smiles>  (29) 
COC1=C(Br)C=C(Br)C=C1CNC1=CC=C(OC2CCN(C)C2=O)C=C1C Z2748966443

>  <ref_pdb>  (29) 
Ax0528a

>  <ref_mols>  (29) 
Ax0528a,Ax0556a

>  <rationale>  (29) 
Enamine real space elaborations around a merge of x0528 and x0556.

$$$$
PV-006487124897
     RDKit          3D

 25 26  0  0  0  0  0  0  0  0999 V2000
   10.0311    9.9137   23.6383 C   0  0  0  0  0  0  0  0  0  0  0  0
    9.6288   11.3112   24.0241 C   0  0  0  0  0  0  0  0  0  0  0  0
    8.7607   11.6284   25.0706 C   0  0  0  0  0  0  0  0  0  0  0  0
    7.9446   10.3702   25.9516 Cl  0  0  0  0  0  0  0  0  0  0  0  0
    8.4921   12.9436   25.4378 C   0  0  0  0  0  0  0  0  0  0  0  0
    9.0366   13.9788   24.7035 C   0  0  0  0  0  0  0  0  0  0  0  0
    8.7712   15.2502   25.0455 F   0  0  0  0  0  0  0  0  0  0  0  0
    9.8282   13.7385   23.5815 C   0  0  0  0  0  0  0  0  0  0  0  0
   10.1406   14.7087   22.6825 O   0  0  0  0  0  0  0  0  0  0  0  0
   11.1466   15.6686   22.9804 C   0  0  1  0  0  0  0  0  0  0  0  0
   12.5977   15.1485   23.1082 C   0  0  0  0  0  0  0  0  0  0  0  0
   13.4629   16.1125   22.2642 C   0  0  0  0  0  0  0  0  0  0  0  0
   12.5086   16.9397   21.5428 N   0  0  0  0  0  0  0  0  0  0  0  0
   12.8774   17.5822   20.3060 C   0  0  0  0  0  0  0  0  0  0  0  0
   12.9682   16.5802   19.1496 C   0  0  0  0  0  0  0  0  0  0  0  0
   12.8817   15.3932   19.3177 O   0  0  0  0  0  0  0  0  0  0  0  0
   13.0572   17.0925   17.9035 O   0  0  0  0  0  0  0  0  0  0  0  0
   13.9169   18.1901   17.4681 C   0  0  0  0  0  0  0  0  0  0  0  0
   15.3017   18.1378   18.1072 C   0  0  0  0  0  0  0  0  0  0  0  0
   14.0535   17.9428   15.9708 C   0  0  0  0  0  0  0  0  0  0  0  0
   13.2008   19.5059   17.7257 C   0  0  0  0  0  0  0  0  0  0  0  0
   11.1995   16.6123   21.7712 C   0  0  0  0  0  0  0  0  0  0  0  0
   10.2648   17.0073   21.1075 O   0  0  0  0  0  0  0  0  0  0  0  0
   10.1353   12.4048   23.3109 C   0  0  0  0  0  0  0  0  0  0  0  0
   11.2033   12.1055   21.9882 Cl  0  0  0  0  0  0  0  0  0  0  0  0
  1  2  1  0
  2  3  2  0
  3  4  1  0
  3  5  1  0
  5  6  2  0
  6  7  1  0
  6  8  1  0
  8  9  1  0
 10  9  1  6
 10 11  1  0
 11 12  1  0
 12 13  1  0
 13 14  1  0
 14 15  1  0
 15 16  2  0
 15 17  1  0
 17 18  1  0
 18 19  1  0
 18 20  1  0
 18 21  1  0
 13 22  1  0
 22 23  2  0
  8 24  2  0
 24 25  1  0
 24  2  1  0
 22 10  1  0
M  END
>  <cnnaffinity>  (30) 
-5.8398

>  <cnnaffinityIC50>  (30) 
1446.105573654733 nanomolar

>  <smiles>  (30) 
CC1=C(Cl)C=C(F)C(OC2CCN(CC(=O)OC(C)(C)C)C2=O)=C1Cl PV-006487124897

>  <ref_pdb>  (30) 
Ax0528a

>  <ref_mols>  (30) 
Ax0528a,Ax0556a

>  <rationale>  (30) 
Enamine real space elaborations around a merge of x0528 and x0556.

$$$$
Z3514530609
     RDKit          3D

 23 24  0  0  0  0  0  0  0  0999 V2000
   12.5580   15.3268   19.0435 C   0  0  0  0  0  0  0  0  0  0  0  0
   13.1907   16.3426   19.6168 C   0  0  0  0  0  0  0  0  0  0  0  0
   12.7759   17.0314   20.9023 C   0  0  0  0  0  0  0  0  0  0  0  0
   12.2134   16.1651   21.9106 N   0  0  0  0  0  0  0  0  0  0  0  0
   13.0296   15.3029   22.7434 C   0  0  0  0  0  0  0  0  0  0  0  0
   12.0514   14.2031   23.1850 C   0  0  0  0  0  0  0  0  0  0  0  0
   10.6681   14.8902   23.1300 C   0  0  2  0  0  0  0  0  0  0  0  0
    9.5433   14.1086   22.7343 O   0  0  0  0  0  0  0  0  0  0  0  0
    9.3451   12.9037   23.3694 C   0  0  0  0  0  0  0  0  0  0  0  0
    8.4840   12.7972   24.4658 C   0  0  0  0  0  0  0  0  0  0  0  0
    8.2733   11.5453   25.0505 C   0  0  0  0  0  0  0  0  0  0  0  0
    7.2366   11.4124   26.1335 C   0  0  0  0  0  0  0  0  0  0  0  0
    7.3099   12.4205   27.0216 F   0  0  0  0  0  0  0  0  0  0  0  0
    7.3593   10.2658   26.8191 F   0  0  0  0  0  0  0  0  0  0  0  0
    5.9854   11.4316   25.6301 F   0  0  0  0  0  0  0  0  0  0  0  0
    8.9397   10.4135   24.5900 C   0  0  0  0  0  0  0  0  0  0  0  0
    9.7340   10.5466   23.4643 C   0  0  0  0  0  0  0  0  0  0  0  0
   10.3665    9.3681   22.8641 N   0  0  0  0  0  4  0  0  0  0  0  0
   10.4554    8.3587   23.5399 O   0  0  0  0  0  0  0  0  0  0  0  0
   10.7468    9.4723   21.7105 O   0  0  0  0  0  1  0  0  0  0  0  0
    9.9375   11.7633   22.8378 C   0  0  0  0  0  0  0  0  0  0  0  0
   10.8706   15.9940   22.0790 C   0  0  0  0  0  0  0  0  0  0  0  0
   10.0110   16.6120   21.4821 O   0  0  0  0  0  0  0  0  0  0  0  0
  1  2  2  0
  2  3  1  0
  3  4  1  0
  4  5  1  0
  5  6  1  0
  6  7  1  0
  7  8  1  6
  8  9  1  0
  9 10  2  0
 10 11  1  0
 11 12  1  0
 12 13  1  0
 12 14  1  0
 12 15  1  0
 11 16  2  0
 16 17  1  0
 17 18  1  0
 18 19  2  0
 18 20  1  0
 17 21  2  0
  7 22  1  0
 22 23  2  0
 22  4  1  0
 21  9  1  0
M  CHG  2  18   1  20  -1
M  END
>  <cnnaffinity>  (31) 
-5.81329

>  <cnnaffinityIC50>  (31) 
1537.1278808861305 nanomolar

>  <smiles>  (31) 
C=CCN1CCC(OC2=CC(C(F)(F)F)=CC([N+](=O)[O-])=C2)C1=O Z3514530609

>  <ref_pdb>  (31) 
Ax0528a

>  <ref_mols>  (31) 
Ax0528a,Ax0556a

>  <rationale>  (31) 
Enamine real space elaborations around a merge of x0528 and x0556.

$$$$
Z2589058935
     RDKit          3D

 27 29  0  0  0  0  0  0  0  0999 V2000
    6.6279   11.4478   25.2521 C   0  0  0  0  0  0  0  0  0  0  0  0
    7.6300   12.4013   24.6555 C   0  0  0  0  0  0  0  0  0  0  0  0
    7.5064   13.7639   24.9256 C   0  0  0  0  0  0  0  0  0  0  0  0
    8.4220   14.6904   24.4505 C   0  0  0  0  0  0  0  0  0  0  0  0
    9.5175   14.3064   23.6850 C   0  0  0  0  0  0  0  0  0  0  0  0
   10.3231   15.3461   23.3305 O   0  0  0  0  0  0  0  0  0  0  0  0
   11.2911   15.2948   22.3057 C   0  0  2  0  0  0  0  0  0  0  0  0
   12.7062   15.4065   22.8808 C   0  0  0  0  0  0  0  0  0  0  0  0
   13.4422   16.4499   22.0219 C   0  0  0  0  0  0  0  0  0  0  0  0
   12.3795   17.1317   21.2930 N   0  0  0  0  0  0  0  0  0  0  0  0
   12.6723   17.7792   20.0382 C   0  0  0  0  0  0  0  0  0  0  0  0
   12.9647   16.7527   18.9436 C   0  0  0  0  0  0  0  0  0  0  0  0
   12.9571   15.5673   19.1395 O   0  0  0  0  0  0  0  0  0  0  0  0
   13.1269   17.2522   17.7036 O   0  0  0  0  0  0  0  0  0  0  0  0
   13.9994   18.3664   17.3549 C   0  0  0  0  0  0  0  0  0  0  0  0
   13.2678   19.6813   17.5834 C   0  0  0  0  0  0  0  0  0  0  0  0
   14.1970   18.1527   15.8632 C   0  0  0  0  0  0  0  0  0  0  0  0
   15.3564   18.2773   18.0523 C   0  0  0  0  0  0  0  0  0  0  0  0
   11.1487   16.5313   21.4172 C   0  0  0  0  0  0  0  0  0  0  0  0
   10.1543   16.8813   20.8186 O   0  0  0  0  0  0  0  0  0  0  0  0
    9.6814   12.9324   23.4281 C   0  0  0  0  0  0  0  0  0  0  0  0
    8.7103   12.0154   23.8615 C   0  0  0  0  0  0  0  0  0  0  0  0
    9.0742   10.5899   23.4975 C   0  0  2  0  0  0  0  0  0  0  0  0
    9.4310    9.7664   24.7252 C   0  0  0  0  0  0  0  0  0  0  0  0
   10.3001   10.7409   22.5853 C   0  0  0  0  0  0  0  0  0  0  0  0
   10.7896   12.1638   22.7958 C   0  0  0  0  0  0  0  0  0  0  0  0
   11.8986   12.5509   22.5077 O   0  0  0  0  0  0  0  0  0  0  0  0
  1  2  1  0
  2  3  2  0
  3  4  1  0
  4  5  2  0
  5  6  1  0
  7  6  1  1
  7  8  1  0
  8  9  1  0
  9 10  1  0
 10 11  1  0
 11 12  1  0
 12 13  2  0
 12 14  1  0
 14 15  1  0
 15 16  1  0
 15 17  1  0
 15 18  1  0
 10 19  1  0
 19 20  2  0
  5 21  1  0
 21 22  2  0
 22 23  1  0
 23 24  1  1
 23 25  1  0
 25 26  1  0
 26 27  2  0
 22  2  1  0
 19  7  1  0
 26 21  1  0
M  END
>  <cnnaffinity>  (32) 
-5.74658

>  <cnnaffinityIC50>  (32) 
1792.33836102738 nanomolar

>  <smiles>  (32) 
CC1=CC=C(OC2CCN(CC(=O)OC(C)(C)C)C2=O)C2=C1C(C)CC2=O Z2589058935

>  <ref_pdb>  (32) 
Ax0528a

>  <ref_mols>  (32) 
Ax0528a,Ax0556a

>  <rationale>  (32) 
Enamine real space elaborations around a merge of x0528 and x0556.

$$$$
Z5026145405
     RDKit          3D

 23 25  0  0  0  0  0  0  0  0999 V2000
   10.4381    9.3447   21.6426 N   0  0  0  0  0  0  0  0  0  0  0  0
   10.6742    9.6686   22.9486 C   0  0  0  0  0  0  0  0  0  0  0  0
   11.6805    9.2015   23.4530 O   0  0  0  0  0  0  0  0  0  0  0  0
    9.8456   10.6803   23.6018 C   0  0  0  0  0  0  0  0  0  0  0  0
    8.9188   10.3507   24.6088 C   0  0  0  0  0  0  0  0  0  0  0  0
    8.1266   11.3390   25.1948 C   0  0  0  0  0  0  0  0  0  0  0  0
    6.8717   10.8659   26.5551 Br  0  0  0  0  0  0  0  0  0  0  0  0
    8.2694   12.6661   24.7829 C   0  0  0  0  0  0  0  0  0  0  0  0
    9.2004   13.0261   23.8039 C   0  0  0  0  0  0  0  0  0  0  0  0
    9.2953   14.3517   23.4682 O   0  0  0  0  0  0  0  0  0  0  0  0
   10.5437   14.9174   22.9870 C   0  0  1  0  0  0  0  0  0  0  0  0
   11.8789   14.2727   23.3710 C   0  0  0  0  0  0  0  0  0  0  0  0
   12.8755   14.8825   22.3642 C   0  0  0  0  0  0  0  0  0  0  0  0
   12.0758   15.2967   21.2030 N   0  0  0  0  0  0  0  0  0  0  0  0
   12.3142   16.5472   20.4706 C   0  0  0  0  0  0  0  0  0  0  0  0
   13.7493   16.9401   20.1123 C   0  0  0  0  0  0  0  0  0  0  0  0
   14.5824   17.2377   21.3570 C   0  0  0  0  0  0  0  0  0  0  0  0
   13.9650   18.2559   22.1153 O   0  0  0  0  0  0  0  0  0  0  0  0
   12.6352   17.9987   22.5059 C   0  0  0  0  0  0  0  0  0  0  0  0
   11.7241   17.6853   21.3051 C   0  0  0  0  0  0  0  0  0  0  0  0
   10.7354   15.0632   21.4809 C   0  0  0  0  0  0  0  0  0  0  0  0
    9.8375   15.2982   20.6714 O   0  0  0  0  0  0  0  0  0  0  0  0
    9.9640   12.0254   23.1983 C   0  0  0  0  0  0  0  0  0  0  0  0
  1  2  1  0
  2  3  2  0
  2  4  1  0
  4  5  2  0
  5  6  1  0
  6  7  1  0
  6  8  2  0
  8  9  1  0
  9 10  1  0
 11 10  1  6
 11 12  1  0
 12 13  1  0
 13 14  1  0
 14 15  1  0
 15 16  1  0
 16 17  1  0
 17 18  1  0
 18 19  1  0
 19 20  1  0
 14 21  1  0
 21 22  2  0
  9 23  2  0
 23  4  1  0
 21 11  1  0
 20 15  1  0
M  END
>  <cnnaffinity>  (33) 
-5.64512

>  <cnnaffinityIC50>  (33) 
2264.0186496880406 nanomolar

>  <smiles>  (33) 
NC(=O)C1=CC(Br)=CC(OC2CCN(C3CCOCC3)C2=O)=C1 Z5026145405

>  <ref_pdb>  (33) 
Ax0528a

>  <ref_mols>  (33) 
Ax0528a,Ax0556a

>  <rationale>  (33) 
Enamine real space elaborations around a merge of x0528 and x0556.

$$$$
Z2721846455
     RDKit          3D

 25 28  0  0  0  0  0  0  0  0999 V2000
    5.1209    9.4471   26.6576 O   0  0  0  0  0  0  0  0  0  0  0  0
    5.8804   10.3971   26.6864 C   0  0  0  0  0  0  0  0  0  0  0  0
    5.5015   11.7326   27.2844 C   0  0  0  0  0  0  0  0  0  0  0  0
    6.6448   12.3771   28.0692 C   0  0  0  0  0  0  0  0  0  0  0  0
    7.5391   13.2329   27.1753 C   0  0  0  0  0  0  0  0  0  0  0  0
    7.9770   12.6368   25.8443 C   0  0  0  0  0  0  0  0  0  0  0  0
    8.4866   13.5401   24.9000 C   0  0  0  0  0  0  0  0  0  0  0  0
    8.9710   13.1180   23.6697 C   0  0  0  0  0  0  0  0  0  0  0  0
    9.2454   14.0119   22.6590 O   0  0  0  0  0  0  0  0  0  0  0  0
   10.5127   14.6491   22.6827 C   0  0  1  0  0  0  0  0  0  0  0  0
   11.7408   13.7238   22.7479 C   0  0  0  0  0  0  0  0  0  0  0  0
   12.6620   14.1418   21.5800 C   0  0  0  0  0  0  0  0  0  0  0  0
   11.8540   15.0434   20.7594 N   0  0  0  0  0  0  0  0  0  0  0  0
   12.4996   16.0805   19.9607 C   0  0  0  0  0  0  0  0  0  0  0  0
   13.1403   15.6142   18.6392 C   0  0  0  0  0  0  0  0  0  0  0  0
   14.3496   16.5000   18.2682 C   0  0  0  0  0  0  0  0  0  0  0  0
   14.1202   17.9760   18.5700 C   0  0  0  0  0  0  0  0  0  0  0  0
   13.7796   18.1877   20.0546 C   0  0  0  0  0  0  0  0  0  0  0  0
   13.4985   16.8838   20.7841 C   0  0  0  0  0  0  0  0  0  0  0  0
   10.6662   15.3992   21.3607 C   0  0  0  0  0  0  0  0  0  0  0  0
    9.8889   16.2241   20.9227 O   0  0  0  0  0  0  0  0  0  0  0  0
    9.0730   11.7530   23.4094 C   0  0  0  0  0  0  0  0  0  0  0  0
    8.5287   10.8535   24.3043 C   0  0  0  0  0  0  0  0  0  0  0  0
    7.8964   11.2841   25.4764 C   0  0  0  0  0  0  0  0  0  0  0  0
    7.1666   10.2902   26.1788 N   0  0  0  0  0  0  0  0  0  0  0  0
  1  2  2  0
  2  3  1  0
  3  4  1  0
  4  5  1  0
  5  6  1  0
  6  7  2  0
  7  8  1  0
  8  9  1  0
 10  9  1  6
 10 11  1  0
 11 12  1  0
 12 13  1  0
 13 14  1  0
 14 15  1  0
 15 16  1  0
 16 17  1  0
 17 18  1  0
 18 19  1  0
 13 20  1  0
 20 21  2  0
  8 22  2  0
 22 23  1  0
 23 24  2  0
 24 25  1  0
 25  2  1  0
 24  6  1  0
 20 10  1  0
 19 14  1  0
M  END
>  <cnnaffinity>  (34) 
-5.6259

>  <cnnaffinityIC50>  (34) 
2366.464533352565 nanomolar

>  <smiles>  (34) 
O=C1CCCC2=CC(OC3CCN(C4CCCCC4)C3=O)=CC=C2N1 Z2721846455

>  <ref_pdb>  (34) 
Ax0528a

>  <ref_mols>  (34) 
Ax0528a,Ax0556a

>  <rationale>  (34) 
Enamine real space elaborations around a merge of x0528 and x0556.

$$$$
PV-003840923536
     RDKit          3D

 24 25  0  0  0  0  0  0  0  0999 V2000
   14.0254   18.1039   15.9480 C   0  0  0  0  0  0  0  0  0  0  0  0
   13.8942   18.2592   17.4593 C   0  0  0  0  0  0  0  0  0  0  0  0
   13.1439   19.5367   17.8044 C   0  0  0  0  0  0  0  0  0  0  0  0
   15.2945   18.1923   18.0714 C   0  0  0  0  0  0  0  0  0  0  0  0
   13.0586   17.1221   17.8171 O   0  0  0  0  0  0  0  0  0  0  0  0
   12.9497   16.5231   19.0140 C   0  0  0  0  0  0  0  0  0  0  0  0
   12.8055   15.3304   19.0636 O   0  0  0  0  0  0  0  0  0  0  0  0
   12.8800   17.4134   20.2654 C   0  0  0  0  0  0  0  0  0  0  0  0
   12.4795   16.6397   21.4182 N   0  0  0  0  0  0  0  0  0  0  0  0
   13.3994   15.6961   22.0481 C   0  0  0  0  0  0  0  0  0  0  0  0
   12.4835   14.7351   22.8205 C   0  0  0  0  0  0  0  0  0  0  0  0
   11.1467   14.8123   22.0731 C   0  0  1  0  0  0  0  0  0  0  0  0
    9.9885   14.6997   22.8686 O   0  0  0  0  0  0  0  0  0  0  0  0
    9.6864   13.4807   23.4104 C   0  0  0  0  0  0  0  0  0  0  0  0
    8.6160   13.4771   24.3150 C   0  0  0  0  0  0  0  0  0  0  0  0
    8.2021   12.2937   24.9004 C   0  0  0  0  0  0  0  0  0  0  0  0
    8.8473   11.1020   24.5889 C   0  0  0  0  0  0  0  0  0  0  0  0
    8.2881    9.6352   25.3018 Cl  0  0  0  0  0  0  0  0  0  0  0  0
    9.9176   11.0890   23.6958 C   0  0  0  0  0  0  0  0  0  0  0  0
   10.5723    9.8424   23.3945 C   0  0  0  0  0  0  0  0  0  0  0  0
   11.0674    8.8191   23.1717 N   0  0  0  0  0  0  0  0  0  0  0  0
   10.3350   12.2847   23.1023 C   0  0  0  0  0  0  0  0  0  0  0  0
   11.1778   16.1907   21.4165 C   0  0  0  0  0  0  0  0  0  0  0  0
   10.2576   16.7637   20.8727 O   0  0  0  0  0  0  0  0  0  0  0  0
  1  2  1  0
  2  3  1  0
  2  4  1  0
  2  5  1  0
  5  6  1  0
  6  7  2  0
  6  8  1  0
  8  9  1  0
  9 10  1  0
 10 11  1  0
 11 12  1  0
 12 13  1  1
 13 14  1  0
 14 15  2  0
 15 16  1  0
 16 17  2  0
 17 18  1  0
 17 19  1  0
 19 20  1  0
 20 21  3  0
 19 22  2  0
 12 23  1  0
 23 24  2  0
 23  9  1  0
 22 14  1  0
M  END
>  <cnnaffinity>  (35) 
-5.62533

>  <cnnaffinityIC50>  (35) 
2369.572494460551 nanomolar

>  <smiles>  (35) 
CC(C)(C)OC(=O)CN1CCC(OC2=CC=C(Cl)C(C#N)=C2)C1=O PV-003840923536

>  <ref_pdb>  (35) 
Ax0528a

>  <ref_mols>  (35) 
Ax0528a,Ax0556a

>  <rationale>  (35) 
Enamine real space elaborations around a merge of x0528 and x0556.

$$$$
Z2721907542
     RDKit          3D

 25 27  0  0  0  0  0  0  0  0999 V2000
    9.7130   15.2532   20.5305 O   0  0  0  0  0  0  0  0  0  0  0  0
   10.6120   14.7213   21.1494 C   0  0  0  0  0  0  0  0  0  0  0  0
   10.5303   13.5384   22.1154 C   0  0  2  0  0  0  0  0  0  0  0  0
    9.3638   13.5410   22.9002 O   0  0  0  0  0  0  0  0  0  0  0  0
    9.1394   12.3642   23.5611 C   0  0  0  0  0  0  0  0  0  0  0  0
    8.1813   12.3692   24.5738 C   0  0  0  0  0  0  0  0  0  0  0  0
    7.9148   11.1990   25.2723 C   0  0  0  0  0  0  0  0  0  0  0  0
    6.8647   11.2378   26.3442 C   0  0  0  0  0  0  0  0  0  0  0  0
    6.9607   10.2017   27.1944 F   0  0  0  0  0  0  0  0  0  0  0  0
    5.6173   11.2145   25.8346 F   0  0  0  0  0  0  0  0  0  0  0  0
    6.9602   12.3674   27.0733 F   0  0  0  0  0  0  0  0  0  0  0  0
    8.5887   10.0123   24.9824 C   0  0  0  0  0  0  0  0  0  0  0  0
    9.5402   10.0128   23.9716 C   0  0  0  0  0  0  0  0  0  0  0  0
   10.3051    8.8056   23.5066 C   0  0  0  0  0  0  0  0  0  0  0  0
   10.1302    8.6376   22.1047 O   0  0  0  0  0  0  0  0  0  0  0  0
    9.7958   11.1761   23.2573 C   0  0  0  0  0  0  0  0  0  0  0  0
   11.8481   13.6142   22.8975 C   0  0  0  0  0  0  0  0  0  0  0  0
   12.8135   14.1945   21.8647 C   0  0  0  0  0  0  0  0  0  0  0  0
   11.9426   14.9945   21.0202 N   0  0  0  0  0  0  0  0  0  0  0  0
   12.4109   16.0751   20.1873 C   0  0  0  0  0  0  0  0  0  0  0  0
   12.9652   15.6478   18.8038 C   0  0  0  0  0  0  0  0  0  0  0  0
   14.1930   16.4805   18.3817 C   0  0  0  0  0  0  0  0  0  0  0  0
   14.0938   17.9753   18.6915 C   0  0  0  0  0  0  0  0  0  0  0  0
   13.5683   18.2272   20.1163 C   0  0  0  0  0  0  0  0  0  0  0  0
   13.4125   16.9511   20.9259 C   0  0  0  0  0  0  0  0  0  0  0  0
  1  2  2  0
  2  3  1  0
  3  4  1  1
  4  5  1  0
  5  6  2  0
  6  7  1  0
  7  8  1  0
  8  9  1  0
  8 10  1  0
  8 11  1  0
  7 12  2  0
 12 13  1  0
 13 14  1  0
 14 15  1  0
 13 16  2  0
  3 17  1  0
 17 18  1  0
 18 19  1  0
 19 20  1  0
 20 21  1  0
 21 22  1  0
 22 23  1  0
 23 24  1  0
 24 25  1  0
 19  2  1  0
 25 20  1  0
 16  5  1  0
M  END
>  <cnnaffinity>  (36) 
-5.62323

>  <cnnaffinityIC50>  (36) 
2381.058139926493 nanomolar

>  <smiles>  (36) 
O=C1C(OC2=CC(C(F)(F)F)=CC(CO)=C2)CCN1C1CCCCC1 Z2721907542

>  <ref_pdb>  (36) 
Ax0528a

>  <ref_mols>  (36) 
Ax0528a,Ax0556a

>  <rationale>  (36) 
Enamine real space elaborations around a merge of x0528 and x0556.

$$$$
Z2442798079
     RDKit          3D

 23 25  0  0  0  0  0  0  0  0999 V2000
   10.4097    9.3459   21.6630 N   0  0  0  0  0  0  0  0  0  0  0  0
   10.6821    9.6966   22.9562 C   0  0  0  0  0  0  0  0  0  0  0  0
   11.6505    9.1763   23.4735 O   0  0  0  0  0  0  0  0  0  0  0  0
    9.8660   10.7036   23.6311 C   0  0  0  0  0  0  0  0  0  0  0  0
    9.0227   10.3735   24.7079 C   0  0  0  0  0  0  0  0  0  0  0  0
    8.2314   11.3587   25.3060 C   0  0  0  0  0  0  0  0  0  0  0  0
    8.3133   12.6883   24.8696 C   0  0  0  0  0  0  0  0  0  0  0  0
    7.2412   14.0101   25.7469 Br  0  0  0  0  0  0  0  0  0  0  0  0
    9.1726   13.0383   23.8101 C   0  0  0  0  0  0  0  0  0  0  0  0
    9.2495   14.3426   23.3903 O   0  0  0  0  0  0  0  0  0  0  0  0
   10.5083   14.9069   22.9279 C   0  0  1  0  0  0  0  0  0  0  0  0
   11.8401   14.2593   23.3212 C   0  0  0  0  0  0  0  0  0  0  0  0
   12.8543   14.8810   22.3357 C   0  0  0  0  0  0  0  0  0  0  0  0
   12.0737   15.3073   21.1703 N   0  0  0  0  0  0  0  0  0  0  0  0
   12.3299   16.5685   20.4566 C   0  0  0  0  0  0  0  0  0  0  0  0
   11.7397   17.7075   21.2880 C   0  0  0  0  0  0  0  0  0  0  0  0
   12.6419   17.9992   22.5005 C   0  0  0  0  0  0  0  0  0  0  0  0
   13.9739   18.2577   22.1199 O   0  0  0  0  0  0  0  0  0  0  0  0
   14.5940   17.2424   21.3608 C   0  0  0  0  0  0  0  0  0  0  0  0
   13.7731   16.9510   20.1085 C   0  0  0  0  0  0  0  0  0  0  0  0
   10.7308   15.0667   21.4255 C   0  0  0  0  0  0  0  0  0  0  0  0
    9.8578   15.2681   20.5829 O   0  0  0  0  0  0  0  0  0  0  0  0
    9.9077   12.0336   23.1788 C   0  0  0  0  0  0  0  0  0  0  0  0
  1  2  1  0
  2  3  2  0
  2  4  1  0
  4  5  2  0
  5  6  1  0
  6  7  2  0
  7  8  1  0
  7  9  1  0
  9 10  1  0
 11 10  1  6
 11 12  1  0
 12 13  1  0
 13 14  1  0
 14 15  1  0
 15 16  1  0
 16 17  1  0
 17 18  1  0
 18 19  1  0
 19 20  1  0
 14 21  1  0
 21 22  2  0
  9 23  2  0
 23  4  1  0
 21 11  1  0
 20 15  1  0
M  END
>  <cnnaffinity>  (37) 
-5.61471

>  <cnnaffinityIC50>  (37) 
2428.2310043101143 nanomolar

>  <smiles>  (37) 
NC(=O)C1=CC=C(Br)C(OC2CCN(C3CCOCC3)C2=O)=C1 Z2442798079

>  <ref_pdb>  (37) 
Ax0528a

>  <ref_mols>  (37) 
Ax0528a,Ax0556a

>  <rationale>  (37) 
Enamine real space elaborations around a merge of x0528 and x0556.

$$$$
Z5026145690
     RDKit          3D

 23 24  0  0  0  0  0  0  0  0999 V2000
   13.1170   13.2255   19.6360 C   0  0  0  0  0  0  0  0  0  0  0  0
   12.7080   14.4466   20.2737 O   0  0  0  0  0  0  0  0  0  0  0  0
   12.7444   15.5614   19.5019 C   0  0  0  0  0  0  0  0  0  0  0  0
   13.0931   15.6031   18.3279 O   0  0  0  0  0  0  0  0  0  0  0  0
   12.2527   16.8698   20.1049 C   0  0  0  0  0  0  0  0  0  0  0  0
   12.8096   17.1371   21.4999 C   0  0  0  0  0  0  0  0  0  0  0  0
   12.3393   16.0915   22.3888 N   0  0  0  0  0  0  0  0  0  0  0  0
   13.1927   14.9942   22.8193 C   0  0  0  0  0  0  0  0  0  0  0  0
   12.2302   13.9212   23.3482 C   0  0  0  0  0  0  0  0  0  0  0  0
   10.8332   14.2936   22.8244 C   0  0  1  0  0  0  0  0  0  0  0  0
    9.8027   14.0508   23.8080 O   0  0  0  0  0  0  0  0  0  0  0  0
    9.4653   12.7347   24.0124 C   0  0  0  0  0  0  0  0  0  0  0  0
    8.5327   12.4205   25.0056 C   0  0  0  0  0  0  0  0  0  0  0  0
    8.1735   11.0899   25.2519 C   0  0  0  0  0  0  0  0  0  0  0  0
    6.8725   10.6609   26.5867 Br  0  0  0  0  0  0  0  0  0  0  0  0
    8.7599   10.0655   24.5045 C   0  0  0  0  0  0  0  0  0  0  0  0
    9.6915   10.3523   23.4879 C   0  0  0  0  0  0  0  0  0  0  0  0
   10.3206    9.2779   22.7026 C   0  0  0  0  0  0  0  0  0  0  0  0
   10.7480    8.1260   23.3034 N   0  0  0  0  0  0  0  0  0  0  0  0
   10.6149    9.4022   21.5268 O   0  0  0  0  0  0  0  0  0  0  0  0
   10.0218   11.6982   23.2507 C   0  0  0  0  0  0  0  0  0  0  0  0
   10.9995   15.7501   22.4223 C   0  0  0  0  0  0  0  0  0  0  0  0
   10.1046   16.4369   21.9342 O   0  0  0  0  0  0  0  0  0  0  0  0
  1  2  1  0
  2  3  1  0
  3  4  2  0
  3  5  1  0
  5  6  1  0
  6  7  1  0
  7  8  1  0
  8  9  1  0
  9 10  1  0
 10 11  1  1
 11 12  1  0
 12 13  2  0
 13 14  1  0
 14 15  1  0
 14 16  2  0
 16 17  1  0
 17 18  1  0
 18 19  1  0
 18 20  2  0
 17 21  2  0
 10 22  1  0
 22 23  2  0
 22  7  1  0
 21 12  1  0
M  END
>  <cnnaffinity>  (38) 
-5.59574

>  <cnnaffinityIC50>  (38) 
2536.646795736453 nanomolar

>  <smiles>  (38) 
COC(=O)CCN1CCC(OC2=CC(Br)=CC(C(N)=O)=C2)C1=O Z5026145690

>  <ref_pdb>  (38) 
Ax0528a

>  <ref_mols>  (38) 
Ax0528a,Ax0556a

>  <rationale>  (38) 
Enamine real space elaborations around a merge of x0528 and x0556.

$$$$
Z1983254936
     RDKit          3D

 24 25  0  0  0  0  0  0  0  0999 V2000
   12.4918   15.4392   19.3031 C   0  0  0  0  0  0  0  0  0  0  0  0
   12.7974   16.5414   19.9787 C   0  0  0  0  0  0  0  0  0  0  0  0
   12.3660   16.8896   21.3868 C   0  0  0  0  0  0  0  0  0  0  0  0
   11.8711   15.7925   22.1775 N   0  0  0  0  0  0  0  0  0  0  0  0
   12.7165   14.8705   22.9184 C   0  0  0  0  0  0  0  0  0  0  0  0
   11.7775   13.6822   23.2016 C   0  0  0  0  0  0  0  0  0  0  0  0
   10.3639   14.2858   23.0989 C   0  0  2  0  0  0  0  0  0  0  0  0
    9.3477   13.4155   22.6448 O   0  0  0  0  0  0  0  0  0  0  0  0
    9.0524   12.3959   23.5229 C   0  0  0  0  0  0  0  0  0  0  0  0
    8.1916   12.5941   24.5919 C   0  0  0  0  0  0  0  0  0  0  0  0
    7.8060   11.5296   25.4293 C   0  0  0  0  0  0  0  0  0  0  0  0
    6.7874   11.7098   26.4792 C   0  0  0  0  0  0  0  0  0  0  0  0
    6.2875   10.7249   27.2397 C   0  0  0  0  0  0  0  0  0  0  0  0
    5.1650   10.8743   28.1922 C   0  0  0  0  0  0  0  0  0  0  0  0
    4.7308    9.9626   28.8585 O   0  0  0  0  0  0  0  0  0  0  0  0
    4.6523   12.1198   28.2418 O   0  0  0  0  0  0  0  0  0  0  0  0
    3.5447   12.2472   29.1332 C   0  0  0  0  0  0  0  0  0  0  0  0
    8.4037   10.2919   25.2126 C   0  0  0  0  0  0  0  0  0  0  0  0
    9.2844   10.0857   24.1642 C   0  0  0  0  0  0  0  0  0  0  0  0
    9.5821   11.1139   23.2740 C   0  0  0  0  0  0  0  0  0  0  0  0
   10.3484   10.9511   22.1676 O   0  0  0  0  0  0  0  0  0  0  0  0
   10.7449    9.6262   21.8770 C   0  0  0  0  0  0  0  0  0  0  0  0
   10.5584   15.4325   22.1026 C   0  0  0  0  0  0  0  0  0  0  0  0
    9.7368   15.9717   21.3883 O   0  0  0  0  0  0  0  0  0  0  0  0
  1  2  2  0
  2  3  1  0
  3  4  1  0
  4  5  1  0
  5  6  1  0
  6  7  1  0
  7  8  1  6
  8  9  1  0
  9 10  2  0
 10 11  1  0
 11 12  1  0
 12 13  2  3
 13 14  1  0
 14 15  2  0
 14 16  1  0
 16 17  1  0
 11 18  2  0
 18 19  1  0
 19 20  2  0
 20 21  1  0
 21 22  1  0
  7 23  1  0
 23 24  2  0
 23  4  1  0
 20  9  1  0
M  END
>  <cnnaffinity>  (39) 
-5.58333

>  <cnnaffinityIC50>  (39) 
2610.1772494564025 nanomolar

>  <smiles>  (39) 
C=CCN1CCC(OC2=CC(C=CC(=O)OC)=CC=C2OC)C1=O Z1983254936

>  <ref_pdb>  (39) 
Ax0528a

>  <ref_mols>  (39) 
Ax0528a,Ax0556a

>  <rationale>  (39) 
Enamine real space elaborations around a merge of x0528 and x0556.

$$$$
Z2614219026
     RDKit          3D

 25 27  0  0  0  0  0  0  0  0999 V2000
    9.8957   15.3720   20.9972 O   0  0  0  0  0  0  0  0  0  0  0  0
   10.8424   15.1116   21.7074 C   0  0  0  0  0  0  0  0  0  0  0  0
   10.8372   14.5676   23.1274 C   0  0  1  0  0  0  0  0  0  0  0  0
    9.5938   13.9997   23.4257 O   0  0  0  0  0  0  0  0  0  0  0  0
    9.3614   12.7302   23.8538 C   0  0  0  0  0  0  0  0  0  0  0  0
    8.2931   12.5999   24.7460 C   0  0  0  0  0  0  0  0  0  0  0  0
    7.9117   11.3409   25.1804 C   0  0  0  0  0  0  0  0  0  0  0  0
    6.7408   11.1953   26.1107 C   0  0  0  0  0  0  0  0  0  0  0  0
    7.1208   11.0553   27.3942 F   0  0  0  0  0  0  0  0  0  0  0  0
    6.0045   10.1094   25.8078 F   0  0  0  0  0  0  0  0  0  0  0  0
    5.9232   12.2628   26.0597 F   0  0  0  0  0  0  0  0  0  0  0  0
    8.5987   10.2050   24.7486 C   0  0  0  0  0  0  0  0  0  0  0  0
    9.6384   10.3415   23.8340 C   0  0  0  0  0  0  0  0  0  0  0  0
   10.3829    9.1771   23.2360 C   0  0  0  0  0  0  0  0  0  0  0  0
   10.2003    9.1203   21.8249 O   0  0  0  0  0  0  0  0  0  0  0  0
    9.9878   11.6011   23.3500 C   0  0  0  0  0  0  0  0  0  0  0  0
   12.2026   13.8674   23.2121 C   0  0  0  0  0  0  0  0  0  0  0  0
   13.0705   14.8595   22.4117 C   0  0  0  0  0  0  0  0  0  0  0  0
   12.1583   15.3915   21.4012 N   0  0  0  0  0  0  0  0  0  0  0  0
   12.3371   16.6075   20.6087 C   0  0  0  0  0  0  0  0  0  0  0  0
   13.7594   16.9687   20.1885 C   0  0  0  0  0  0  0  0  0  0  0  0
   14.6333   17.3971   21.3618 C   0  0  0  0  0  0  0  0  0  0  0  0
   14.0024   18.4023   22.1154 O   0  0  0  0  0  0  0  0  0  0  0  0
   12.7033   18.1194   22.5570 C   0  0  0  0  0  0  0  0  0  0  0  0
   11.7750   17.8076   21.3751 C   0  0  0  0  0  0  0  0  0  0  0  0
  1  2  2  0
  2  3  1  0
  3  4  1  6
  4  5  1  0
  5  6  2  0
  6  7  1  0
  7  8  1  0
  8  9  1  0
  8 10  1  0
  8 11  1  0
  7 12  2  0
 12 13  1  0
 13 14  1  0
 14 15  1  0
 13 16  2  0
  3 17  1  0
 17 18  1  0
 18 19  1  0
 19 20  1  0
 20 21  1  0
 21 22  1  0
 22 23  1  0
 23 24  1  0
 24 25  1  0
 19  2  1  0
 25 20  1  0
 16  5  1  0
M  END
>  <cnnaffinity>  (40) 
-5.56344

>  <cnnaffinityIC50>  (40) 
2732.498926479996 nanomolar

>  <smiles>  (40) 
O=C1C(OC2=CC(C(F)(F)F)=CC(CO)=C2)CCN1C1CCOCC1 Z2614219026

>  <ref_pdb>  (40) 
Ax0528a

>  <ref_mols>  (40) 
Ax0528a,Ax0556a

>  <rationale>  (40) 
Enamine real space elaborations around a merge of x0528 and x0556.

$$$$
PV-006372492578
     RDKit          3D

 22 23  0  0  0  0  0  0  0  0999 V2000
   10.5336    8.1346   23.5116 N   0  0  0  0  0  0  0  0  0  0  0  0
   10.2576    9.3379   22.9232 C   0  0  0  0  0  0  0  0  0  0  0  0
   10.6694    9.4501   21.7800 O   0  0  0  0  0  0  0  0  0  0  0  0
    9.6295   10.4657   23.6471 C   0  0  0  0  0  0  0  0  0  0  0  0
    8.6526   10.2892   24.6500 C   0  0  0  0  0  0  0  0  0  0  0  0
    8.0484   11.3986   25.2570 C   0  0  0  0  0  0  0  0  0  0  0  0
    6.6625   11.1326   26.5484 Br  0  0  0  0  0  0  0  0  0  0  0  0
    8.4393   12.6961   24.8950 C   0  0  0  0  0  0  0  0  0  0  0  0
    9.4258   12.9060   23.9254 C   0  0  0  0  0  0  0  0  0  0  0  0
    9.7863   14.1921   23.5731 O   0  0  0  0  0  0  0  0  0  0  0  0
   10.8038   14.3068   22.5424 C   0  0  2  0  0  0  0  0  0  0  0  0
   12.2235   14.1339   23.1214 C   0  0  0  0  0  0  0  0  0  0  0  0
   13.0787   15.3184   22.6227 C   0  0  0  0  0  0  0  0  0  0  0  0
   12.2160   16.0725   21.7217 N   0  0  0  0  0  0  0  0  0  0  0  0
   12.6878   17.1972   20.8736 C   0  0  0  0  0  0  0  0  0  0  0  0
   13.0999   16.9057   19.3969 C   0  0  0  0  0  0  0  0  0  0  0  0
   14.4446   16.7645   19.2705 F   0  0  0  0  0  0  0  0  0  0  0  0
   12.7426   17.9680   18.6217 F   0  0  0  0  0  0  0  0  0  0  0  0
   12.4830   15.7976   18.9081 F   0  0  0  0  0  0  0  0  0  0  0  0
   10.8985   15.6449   21.8105 C   0  0  0  0  0  0  0  0  0  0  0  0
   10.0011   16.1930   21.1731 O   0  0  0  0  0  0  0  0  0  0  0  0
    9.9980   11.7820   23.3143 C   0  0  0  0  0  0  0  0  0  0  0  0
  1  2  1  0
  2  3  2  0
  2  4  1  0
  4  5  2  0
  5  6  1  0
  6  7  1  0
  6  8  2  0
  8  9  1  0
  9 10  1  0
 11 10  1  1
 11 12  1  0
 12 13  1  0
 13 14  1  0
 14 15  1  0
 15 16  1  0
 16 17  1  0
 16 18  1  0
 16 19  1  0
 14 20  1  0
 20 21  2  0
  9 22  2  0
 22  4  1  0
 20 11  1  0
M  END
>  <cnnaffinity>  (41) 
-5.56189

>  <cnnaffinityIC50>  (41) 
2742.2686577355244 nanomolar

>  <smiles>  (41) 
NC(=O)C1=CC(Br)=CC(OC2CCN(CC(F)(F)F)C2=O)=C1 PV-006372492578

>  <ref_pdb>  (41) 
Ax0528a

>  <ref_mols>  (41) 
Ax0528a,Ax0556a

>  <rationale>  (41) 
Enamine real space elaborations around a merge of x0528 and x0556.

$$$$
Z1839020973
     RDKit          3D

 22 24  0  0  0  0  0  0  0  0999 V2000
    7.2954   12.3476   25.9348 C   0  0  0  0  0  0  0  0  0  0  0  0
    8.4017   12.2530   24.9167 C   0  0  0  0  0  0  0  0  0  0  0  0
    8.8862   13.4011   24.2867 C   0  0  0  0  0  0  0  0  0  0  0  0
    9.8827   13.2882   23.3203 C   0  0  0  0  0  0  0  0  0  0  0  0
   10.3110   14.4013   22.6559 O   0  0  0  0  0  0  0  0  0  0  0  0
   11.1495   14.0622   21.5391 C   0  0  2  0  0  0  0  0  0  0  0  0
   12.5886   13.8217   21.9844 C   0  0  0  0  0  0  0  0  0  0  0  0
   13.2865   15.1309   21.6461 C   0  0  0  0  0  0  0  0  0  0  0  0
   12.5559   15.6730   20.4993 N   0  0  0  0  0  0  0  0  0  0  0  0
   12.6171   17.0728   20.1413 C   0  0  0  0  0  0  0  0  0  0  0  0
   14.0385   17.5513   19.8849 C   0  0  0  0  0  0  0  0  0  0  0  0
   14.7933   17.6536   21.1934 C   0  0  0  0  0  0  0  0  0  0  0  0
   14.0723   18.4888   22.0881 O   0  0  0  0  0  0  0  0  0  0  0  0
   12.7751   18.0720   22.4831 C   0  0  0  0  0  0  0  0  0  0  0  0
   11.8781   17.8164   21.2607 C   0  0  0  0  0  0  0  0  0  0  0  0
   11.2799   15.1437   20.5166 C   0  0  0  0  0  0  0  0  0  0  0  0
   10.2886   15.5863   19.9514 O   0  0  0  0  0  0  0  0  0  0  0  0
   10.4186   12.0298   23.0099 C   0  0  0  0  0  0  0  0  0  0  0  0
    9.9721   10.8857   23.6259 C   0  0  0  0  0  0  0  0  0  0  0  0
   10.6348    9.5834   23.2700 C   0  0  0  0  0  0  0  0  0  0  0  0
    8.9454   11.0076   24.5634 C   0  0  0  0  0  0  0  0  0  0  0  0
    8.2520    9.4634   25.3424 Br  0  0  0  0  0  0  0  0  0  0  0  0
  1  2  1  0
  2  3  2  0
  3  4  1  0
  4  5  1  0
  6  5  1  1
  6  7  1  0
  7  8  1  0
  8  9  1  0
  9 10  1  0
 10 11  1  0
 11 12  1  0
 12 13  1  0
 13 14  1  0
 14 15  1  0
  9 16  1  0
 16 17  2  0
  4 18  2  0
 18 19  1  0
 19 20  1  0
 19 21  2  0
 21 22  1  0
 21  2  1  0
 16  6  1  0
 15 10  1  0
M  END
>  <cnnaffinity>  (42) 
-5.55547

>  <cnnaffinityIC50>  (42) 
2783.1076174760374 nanomolar

>  <smiles>  (42) 
CC1=CC(OC2CCN(C3CCOCC3)C2=O)=CC(C)=C1Br Z1839020973

>  <ref_pdb>  (42) 
Ax0528a

>  <ref_mols>  (42) 
Ax0528a,Ax0556a

>  <rationale>  (42) 
Enamine real space elaborations around a merge of x0528 and x0556.

$$$$
Z2589230725
     RDKit          3D

 24 25  0  0  0  0  0  0  0  0999 V2000
   13.8790   18.1014   16.3059 C   0  0  0  0  0  0  0  0  0  0  0  0
   13.7285   18.0488   17.8208 C   0  0  0  0  0  0  0  0  0  0  0  0
   15.1094   18.0273   18.4673 C   0  0  0  0  0  0  0  0  0  0  0  0
   12.9400   19.2441   18.3168 C   0  0  0  0  0  0  0  0  0  0  0  0
   12.9721   16.8213   18.0484 O   0  0  0  0  0  0  0  0  0  0  0  0
   12.8224   16.1655   19.2206 C   0  0  0  0  0  0  0  0  0  0  0  0
   12.7860   14.9629   19.2399 O   0  0  0  0  0  0  0  0  0  0  0  0
   12.5837   17.0016   20.4916 C   0  0  0  0  0  0  0  0  0  0  0  0
   12.1938   16.1737   21.6093 N   0  0  0  0  0  0  0  0  0  0  0  0
   13.1665   15.3078   22.2677 C   0  0  0  0  0  0  0  0  0  0  0  0
   12.3238   14.2143   22.9473 C   0  0  0  0  0  0  0  0  0  0  0  0
   10.9434   14.3030   22.2838 C   0  0  1  0  0  0  0  0  0  0  0  0
    9.8473   14.2172   23.1661 O   0  0  0  0  0  0  0  0  0  0  0  0
    9.5303   12.9963   23.6794 C   0  0  0  0  0  0  0  0  0  0  0  0
    8.4671   12.9931   24.5887 C   0  0  0  0  0  0  0  0  0  0  0  0
    8.0338   11.7886   25.1214 C   0  0  0  0  0  0  0  0  0  0  0  0
    6.6903   11.7931   26.2240 Cl  0  0  0  0  0  0  0  0  0  0  0  0
    8.6354   10.5796   24.7866 C   0  0  0  0  0  0  0  0  0  0  0  0
    9.6940   10.6066   23.8784 C   0  0  0  0  0  0  0  0  0  0  0  0
   10.3203    9.3741   23.4709 C   0  0  0  0  0  0  0  0  0  0  0  0
   10.8233    8.3846   23.1379 N   0  0  0  0  0  0  0  0  0  0  0  0
   10.1557   11.8039   23.3268 C   0  0  0  0  0  0  0  0  0  0  0  0
   10.9128   15.6816   21.6302 C   0  0  0  0  0  0  0  0  0  0  0  0
    9.9490   16.2179   21.1263 O   0  0  0  0  0  0  0  0  0  0  0  0
  1  2  1  0
  2  3  1  0
  2  4  1  0
  2  5  1  0
  5  6  1  0
  6  7  2  0
  6  8  1  0
  8  9  1  0
  9 10  1  0
 10 11  1  0
 11 12  1  0
 12 13  1  1
 13 14  1  0
 14 15  2  0
 15 16  1  0
 16 17  1  0
 16 18  2  0
 18 19  1  0
 19 20  1  0
 20 21  3  0
 19 22  2  0
 12 23  1  0
 23 24  2  0
 23  9  1  0
 22 14  1  0
M  END
>  <cnnaffinity>  (43) 
-5.55419

>  <cnnaffinityIC50>  (43) 
2791.322395176881 nanomolar

>  <smiles>  (43) 
CC(C)(C)OC(=O)CN1CCC(OC2=CC(Cl)=CC(C#N)=C2)C1=O Z2589230725

>  <ref_pdb>  (43) 
Ax0528a

>  <ref_mols>  (43) 
Ax0528a,Ax0556a

>  <rationale>  (43) 
Enamine real space elaborations around a merge of x0528 and x0556.

$$$$
Z1171242899
     RDKit          3D

 26 27  0  0  0  0  0  0  0  0999 V2000
    9.9782   16.5860   21.6987 O   0  0  0  0  0  0  0  0  0  0  0  0
   10.8812   15.9103   22.1437 C   0  0  0  0  0  0  0  0  0  0  0  0
   10.7522   14.7630   23.1404 C   0  0  1  0  0  0  0  0  0  0  0  0
    9.6390   13.9765   22.7380 O   0  0  0  0  0  0  0  0  0  0  0  0
    9.4018   12.8265   23.4464 C   0  0  0  0  0  0  0  0  0  0  0  0
    8.4617   12.7992   24.4766 C   0  0  0  0  0  0  0  0  0  0  0  0
    8.2035   11.5924   25.1283 C   0  0  0  0  0  0  0  0  0  0  0  0
    7.1308   11.5261   26.1792 C   0  0  0  0  0  0  0  0  0  0  0  0
    7.2358   10.4204   26.9383 F   0  0  0  0  0  0  0  0  0  0  0  0
    7.1697   12.5867   27.0075 F   0  0  0  0  0  0  0  0  0  0  0  0
    5.8966   11.5099   25.6376 F   0  0  0  0  0  0  0  0  0  0  0  0
    8.8872   10.4289   24.7862 C   0  0  0  0  0  0  0  0  0  0  0  0
    9.8107   10.4794   23.7522 C   0  0  0  0  0  0  0  0  0  0  0  0
   10.6285    9.2997   23.3373 C   0  0  0  0  0  0  0  0  0  0  0  0
   10.6332    9.1872   21.9929 F   0  0  0  0  0  0  0  0  0  0  0  0
   11.9135    9.4302   23.7181 F   0  0  0  0  0  0  0  0  0  0  0  0
   10.1886    8.1397   23.8402 F   0  0  0  0  0  0  0  0  0  0  0  0
   10.0441   11.6592   23.0600 C   0  0  0  0  0  0  0  0  0  0  0  0
   12.1519   14.1155   23.1311 C   0  0  0  0  0  0  0  0  0  0  0  0
   13.0837   15.2524   22.6753 C   0  0  0  0  0  0  0  0  0  0  0  0
   12.2083   16.0794   21.8632 N   0  0  0  0  0  0  0  0  0  0  0  0
   12.6627   17.1786   21.0698 C   0  0  0  0  0  0  0  0  0  0  0  0
   13.0018   16.8209   19.6135 C   0  0  0  0  0  0  0  0  0  0  0  0
   14.3241   16.6389   19.4380 F   0  0  0  0  0  0  0  0  0  0  0  0
   12.3767   15.7310   19.1650 F   0  0  0  0  0  0  0  0  0  0  0  0
   12.6518   17.8523   18.8183 F   0  0  0  0  0  0  0  0  0  0  0  0
  1  2  2  0
  2  3  1  0
  3  4  1  6
  4  5  1  0
  5  6  2  0
  6  7  1  0
  7  8  1  0
  8  9  1  0
  8 10  1  0
  8 11  1  0
  7 12  2  0
 12 13  1  0
 13 14  1  0
 14 15  1  0
 14 16  1  0
 14 17  1  0
 13 18  2  0
  3 19  1  0
 19 20  1  0
 20 21  1  0
 21 22  1  0
 22 23  1  0
 23 24  1  0
 23 25  1  0
 23 26  1  0
 21  2  1  0
 18  5  1  0
M  END
>  <cnnaffinity>  (44) 
-5.5273

>  <cnnaffinityIC50>  (44) 
2969.613986399162 nanomolar

>  <smiles>  (44) 
O=C1C(OC2=CC(C(F)(F)F)=CC(C(F)(F)F)=C2)CCN1CC(F)(F)F Z1171242899

>  <ref_pdb>  (44) 
Ax0528a

>  <ref_mols>  (44) 
Ax0528a,Ax0556a

>  <rationale>  (44) 
Enamine real space elaborations around a merge of x0528 and x0556.

$$$$
Z3340437790
     RDKit          3D

 22 24  0  0  0  0  0  0  0  0999 V2000
   10.5470    9.0109   23.5028 C   0  0  0  0  0  0  0  0  0  0  0  0
    9.8323   10.2222   24.0192 C   0  0  0  0  0  0  0  0  0  0  0  0
    8.7248   10.1302   24.8635 C   0  0  0  0  0  0  0  0  0  0  0  0
    8.0485   11.2829   25.2848 C   0  0  0  0  0  0  0  0  0  0  0  0
    6.6604   11.1201   26.3405 Cl  0  0  0  0  0  0  0  0  0  0  0  0
    8.4705   12.5477   24.8349 C   0  0  0  0  0  0  0  0  0  0  0  0
    7.5289   14.1336   25.3719 Br  0  0  0  0  0  0  0  0  0  0  0  0
    9.5667   12.6456   23.9633 C   0  0  0  0  0  0  0  0  0  0  0  0
    9.9178   13.8642   23.4240 O   0  0  0  0  0  0  0  0  0  0  0  0
   10.8854   13.7949   22.3514 C   0  0  2  0  0  0  0  0  0  0  0  0
   12.3115   13.8269   22.9193 C   0  0  0  0  0  0  0  0  0  0  0  0
   13.0637   14.9251   22.1617 C   0  0  0  0  0  0  0  0  0  0  0  0
   12.1463   15.4301   21.1507 N   0  0  0  0  0  0  0  0  0  0  0  0
   12.3212   16.6992   20.4650 C   0  0  0  0  0  0  0  0  0  0  0  0
   11.7173   17.7617   21.3736 C   0  0  0  0  0  0  0  0  0  0  0  0
   12.6603   18.0315   22.5609 C   0  0  0  0  0  0  0  0  0  0  0  0
   13.9769   18.3061   22.1327 O   0  0  0  0  0  0  0  0  0  0  0  0
   14.5857   17.2849   21.3722 C   0  0  0  0  0  0  0  0  0  0  0  0
   13.7678   17.0395   20.1114 C   0  0  0  0  0  0  0  0  0  0  0  0
   10.8733   14.9407   21.3516 C   0  0  0  0  0  0  0  0  0  0  0  0
    9.8900   15.3344   20.7220 O   0  0  0  0  0  0  0  0  0  0  0  0
   10.2505   11.4773   23.6008 C   0  0  0  0  0  0  0  0  0  0  0  0
  1  2  1  0
  2  3  2  0
  3  4  1  0
  4  5  1  0
  4  6  2  0
  6  7  1  0
  6  8  1  0
  8  9  1  0
 10  9  1  1
 10 11  1  0
 11 12  1  0
 12 13  1  0
 13 14  1  0
 14 15  1  0
 15 16  1  0
 16 17  1  0
 17 18  1  0
 18 19  1  0
 13 20  1  0
 20 21  2  0
  8 22  2  0
 22  2  1  0
 20 10  1  0
 19 14  1  0
M  END
>  <cnnaffinity>  (45) 
-5.51124

>  <cnnaffinityIC50>  (45) 
3081.4845883218436 nanomolar

>  <smiles>  (45) 
CC1=CC(Cl)=C(Br)C(OC2CCN(C3CCOCC3)C2=O)=C1 Z3340437790

>  <ref_pdb>  (45) 
Ax0528a

>  <ref_mols>  (45) 
Ax0528a,Ax0556a

>  <rationale>  (45) 
Enamine real space elaborations around a merge of x0528 and x0556.

$$$$
Z5026145729
     RDKit          3D

 21 23  0  0  0  0  0  0  0  0999 V2000
   10.0836    9.1700   21.9098 N   0  0  0  0  0  0  0  0  0  0  0  0
   10.4498    9.6452   23.1391 C   0  0  0  0  0  0  0  0  0  0  0  0
   11.4924    9.2128   23.5885 O   0  0  0  0  0  0  0  0  0  0  0  0
    9.6762   10.7293   23.7552 C   0  0  0  0  0  0  0  0  0  0  0  0
    8.6184   10.4980   24.6559 C   0  0  0  0  0  0  0  0  0  0  0  0
    7.8104   11.5615   25.0845 C   0  0  0  0  0  0  0  0  0  0  0  0
    6.3176   11.2074   26.2211 Br  0  0  0  0  0  0  0  0  0  0  0  0
    8.0572   12.8662   24.6329 C   0  0  0  0  0  0  0  0  0  0  0  0
    9.1172   13.1194   23.7592 C   0  0  0  0  0  0  0  0  0  0  0  0
    9.3148   14.3955   23.2818 O   0  0  0  0  0  0  0  0  0  0  0  0
   10.4944   14.5584   22.4623 C   0  0  2  0  0  0  0  0  0  0  0  0
   11.7512   14.4570   23.3408 C   0  0  0  0  0  0  0  0  0  0  0  0
   12.7530   15.4731   22.7850 C   0  0  0  0  0  0  0  0  0  0  0  0
   11.9671   16.3460   21.9270 N   0  0  0  0  0  0  0  0  0  0  0  0
   12.5268   17.4056   21.1121 C   0  0  0  0  0  0  0  0  0  0  0  0
   12.6224   17.1575   19.6105 C   0  0  0  0  0  0  0  0  0  0  0  0
   14.1200   17.4210   19.6309 C   0  0  0  0  0  0  0  0  0  0  0  0
   14.0495   17.5647   21.1467 C   0  0  0  0  0  0  0  0  0  0  0  0
   10.6756   15.8995   21.7615 C   0  0  0  0  0  0  0  0  0  0  0  0
    9.8876   16.4163   20.9704 O   0  0  0  0  0  0  0  0  0  0  0  0
    9.9242   12.0472   23.3509 C   0  0  0  0  0  0  0  0  0  0  0  0
  1  2  1  0
  2  3  2  0
  2  4  1  0
  4  5  2  0
  5  6  1  0
  6  7  1  0
  6  8  2  0
  8  9  1  0
  9 10  1  0
 11 10  1  1
 11 12  1  0
 12 13  1  0
 13 14  1  0
 14 15  1  0
 15 16  1  0
 16 17  1  0
 17 18  1  0
 14 19  1  0
 19 20  2  0
  9 21  2  0
 21  4  1  0
 19 11  1  0
 18 15  1  0
M  END
>  <cnnaffinity>  (46) 
-5.50758

>  <cnnaffinityIC50>  (46) 
3107.56341567737 nanomolar

>  <smiles>  (46) 
NC(=O)C1=CC(Br)=CC(OC2CCN(C3CCC3)C2=O)=C1 Z5026145729

>  <ref_pdb>  (46) 
Ax0528a

>  <ref_mols>  (46) 
Ax0528a,Ax0556a

>  <rationale>  (46) 
Enamine real space elaborations around a merge of x0528 and x0556.

$$$$
Z2374414833
     RDKit          3D

 23 24  0  0  0  0  0  0  0  0999 V2000
    6.0130   11.3438   27.3317 C   0  0  0  0  0  0  0  0  0  0  0  0
    6.7036   12.3042   26.3646 C   0  0  0  0  0  0  0  0  0  0  0  0
    7.7854   11.6437   25.5041 C   0  0  0  0  0  0  0  0  0  0  0  0
    8.2872   12.5920   24.4088 C   0  0  0  0  0  0  0  0  0  0  0  0
    9.6092   13.6996   24.9401 S   0  0  0  0  0  6  0  0  0  0  0  0
    9.6003   14.8264   24.0231 O   0  0  0  0  0  0  0  0  0  0  0  0
    9.4326   13.8942   26.3730 O   0  0  0  0  0  0  0  0  0  0  0  0
   11.0743   12.8900   24.7851 N   0  0  0  0  0  0  0  0  0  0  0  0
   11.9628   13.0764   25.9393 C   0  0  0  0  0  0  0  0  0  0  0  0
   13.4259   12.9070   25.5411 C   0  0  0  0  0  0  0  0  0  0  0  0
   13.5986   11.8975   24.3864 C   0  0  0  0  0  0  0  0  0  0  0  0
   14.9953   11.3346   24.5002 C   0  0  0  0  0  0  0  0  0  0  0  0
   15.9616   11.8093   23.9494 O   0  0  0  0  0  0  0  0  0  0  0  0
   15.0786   10.2996   25.3653 O   0  0  0  0  0  0  0  0  0  0  0  0
   16.4121    9.8064   25.5916 C   0  0  0  0  0  0  0  0  0  0  0  0
   17.2333   10.6309   26.5954 C   0  0  2  0  0  0  0  0  0  0  0  0
   18.6700   10.0978   26.6139 C   0  0  0  0  0  0  0  0  0  0  0  0
   16.5914   10.7556   27.9817 C   0  0  0  0  0  0  0  0  0  0  0  0
   17.2437   11.8099   28.9160 C   0  0  0  0  0  0  0  0  0  0  0  0
   17.5020   10.7208   29.9829 C   0  0  0  0  0  0  0  0  0  0  0  0
   16.8320    9.6699   29.0707 C   0  0  0  0  0  0  0  0  0  0  0  0
   12.4727   10.8678   24.3835 C   0  0  0  0  0  0  0  0  0  0  0  0
   11.1309   11.5676   24.1350 C   0  0  0  0  0  0  0  0  0  0  0  0
  1  2  1  0
  2  3  1  0
  3  4  1  0
  4  5  1  0
  5  6  2  0
  5  7  2  0
  5  8  1  0
  8  9  1  0
  9 10  1  0
 10 11  1  0
 11 12  1  0
 12 13  2  0
 12 14  1  0
 14 15  1  0
 15 16  1  0
 16 17  1  1
 16 18  1  0
 18 19  1  0
 19 20  1  0
 20 21  1  0
 11 22  1  0
 22 23  1  0
 23  8  1  0
 21 18  1  0
M  END
>  <cnnaffinity>  (47) 
-5.62062

>  <cnnaffinityIC50>  (47) 
2395.4107818365896 nanomolar

>  <smiles>  (47) 
CCCCS(=O)(=O)N1CCC(C(=O)OCC(C)C2CCC2)CC1 Z2374414833

>  <ref_pdb>  (47) 
Ax0875a

>  <ref_mols>  (47) 
Ax0875a

>  <rationale>  (47) 
Enamine real space elaborations around x0875.

$$$$
Z2143520179
     RDKit          3D

 23 24  0  0  0  0  0  0  0  0999 V2000
   17.6020    9.1442   26.1573 C   0  0  0  0  0  0  0  0  0  0  0  0
   16.8652    9.6203   24.9274 C   0  0  0  0  0  0  0  0  0  0  0  0
   15.4948    9.8793   25.2922 O   0  0  0  0  0  0  0  0  0  0  0  0
   14.9308   10.9631   24.7262 C   0  0  0  0  0  0  0  0  0  0  0  0
   15.4376   11.5865   23.8230 O   0  0  0  0  0  0  0  0  0  0  0  0
   13.6105   11.3139   25.3758 C   0  0  0  0  0  0  0  0  0  0  0  0
   13.4850   12.8339   25.4728 C   0  0  0  0  0  0  0  0  0  0  0  0
   12.1714   13.1989   26.1356 C   0  0  0  0  0  0  0  0  0  0  0  0
   11.0274   12.5640   25.4547 N   0  0  0  0  0  0  0  0  0  0  0  0
    9.7189   13.6105   25.3754 S   0  0  0  0  0  6  0  0  0  0  0  0
   10.0187   14.7159   24.4796 O   0  0  0  0  0  0  0  0  0  0  0  0
    9.2397   13.8715   26.7194 O   0  0  0  0  0  0  0  0  0  0  0  0
    8.5729   12.5974   24.6886 N   0  0  0  0  0  0  0  0  0  0  0  0
    7.8834   13.0209   23.5390 C   0  0  0  0  0  0  0  0  0  0  0  0
    6.5748   12.8896   23.4894 N   0  0  0  0  0  0  0  0  0  0  0  0
    6.2346   13.2597   22.2378 N   0  0  0  0  0  0  0  0  0  0  0  0
    4.8525   13.2962   21.8197 C   0  0  0  0  0  0  0  0  0  0  0  0
    7.3054   13.5482   21.4906 C   0  0  0  0  0  0  0  0  0  0  0  0
    8.4258   13.4497   22.2965 C   0  0  0  0  0  0  0  0  0  0  0  0
    9.7493   13.7433   21.8660 C   0  0  0  0  0  0  0  0  0  0  0  0
   10.7961   14.0117   21.4461 N   0  0  0  0  0  0  0  0  0  0  0  0
   11.3817   11.7785   24.2527 C   0  0  0  0  0  0  0  0  0  0  0  0
   12.4018   10.6990   24.6227 C   0  0  0  0  0  0  0  0  0  0  0  0
  1  2  1  0
  2  3  1  0
  3  4  1  0
  4  5  2  0
  4  6  1  0
  6  7  1  0
  7  8  1  0
  8  9  1  0
  9 10  1  0
 10 11  2  0
 10 12  2  0
 10 13  1  0
 13 14  1  0
 14 15  2  0
 15 16  1  0
 16 17  1  0
 16 18  1  0
 18 19  2  0
 19 20  1  0
 20 21  3  0
  9 22  1  0
 22 23  1  0
 23  6  1  0
 19 14  1  0
M  END
>  <cnnaffinity>  (48) 
-5.618

>  <cnnaffinityIC50>  (48) 
2409.905428686593 nanomolar

>  <smiles>  (48) 
CCOC(=O)C1CCN(S(=O)(=O)NC2=NN(C)C=C2C#N)CC1 Z2143520179

>  <ref_pdb>  (48) 
Ax0875a

>  <ref_mols>  (48) 
Ax0875a

>  <rationale>  (48) 
Enamine real space elaborations around x0875.

$$$$
Z3821337814
     RDKit          3D

 23 25  0  0  0  0  0  0  0  0999 V2000
   17.4294   10.7986   26.4289 C   0  0  0  0  0  0  0  0  0  0  0  0
   16.1370   11.4035   26.4375 O   0  0  0  0  0  0  0  0  0  0  0  0
   15.2198   10.7777   25.6850 C   0  0  0  0  0  0  0  0  0  0  0  0
   15.4679    9.7814   25.0457 O   0  0  0  0  0  0  0  0  0  0  0  0
   13.8497   11.4082   25.8163 C   0  0  1  0  0  0  0  0  0  0  0  0
   13.8057   12.9260   25.8138 C   0  0  0  0  0  0  0  0  0  0  0  0
   12.3517   13.3112   26.0262 C   0  0  0  0  0  0  0  0  0  0  0  0
   11.5207   12.9082   24.8734 N   0  0  0  0  0  0  0  0  0  0  0  0
   10.0228   13.7259   24.9491 S   0  0  0  0  0  6  0  0  0  0  0  0
   10.1903   15.0304   24.3404 O   0  0  0  0  0  0  0  0  0  0  0  0
    9.5190   13.6381   26.3166 O   0  0  0  0  0  0  0  0  0  0  0  0
    9.0628   12.7367   23.9395 N   0  0  0  0  0  0  0  0  0  0  0  0
    7.4249   12.4449   24.2497 S   0  0  0  0  0  6  0  0  0  0  0  0
    7.0071   11.1000   24.6491 O   0  0  0  0  0  0  0  0  0  0  0  0
    6.8473   13.1258   22.6773 C   0  0  0  0  0  0  0  0  0  0  0  0
    7.1402   14.6100   22.8617 C   0  0  0  0  0  0  0  0  0  0  0  0
    6.5754   14.9830   24.2451 C   0  0  0  0  0  0  0  0  0  0  0  0
    6.7087   13.7701   25.1864 C   0  0  0  0  0  0  0  0  0  0  0  0
   11.5407   11.4636   24.5505 C   0  0  0  0  0  0  0  0  0  0  0  0
   11.0020   11.0023   23.1622 C   0  0  0  0  0  0  0  0  0  0  0  0
   10.0076   10.0442   23.8485 C   0  0  0  0  0  0  0  0  0  0  0  0
   10.4617   10.5761   25.2219 C   0  0  0  0  0  0  0  0  0  0  0  0
   12.9564   10.8736   24.7031 C   0  0  0  0  0  0  0  0  0  0  0  0
  1  2  1  0
  2  3  1  0
  3  4  2  0
  5  3  1  6
  5  6  1  0
  6  7  1  0
  7  8  1  0
  8  9  1  0
  9 10  2  0
  9 11  2  0
  9 12  1  0
 12 13  2  0
 13 14  2  0
 13 15  1  0
 15 16  1  0
 16 17  1  0
 17 18  1  0
  8 19  1  0
 19 20  1  0
 20 21  1  0
 21 22  1  0
 19 23  1  0
 23  5  1  0
 18 13  1  0
 22 19  1  0
M  END
>  <cnnaffinity>  (49) 
-5.61559

>  <cnnaffinityIC50>  (49) 
2423.315722356725 nanomolar

>  <smiles>  (49) 
COC(=O)C1CCN(S(=O)(=O)N=S2(=O)CCCC2)C2(CCC2)C1 Z3821337814

>  <ref_pdb>  (49) 
Ax0875a

>  <ref_mols>  (49) 
Ax0875a

>  <rationale>  (49) 
Enamine real space elaborations around x0875.

$$$$
Z4574452314
     RDKit          3D

 23 24  0  0  0  0  0  0  0  0999 V2000
    7.3825   14.5702   22.6648 C   0  0  0  0  0  0  0  0  0  0  0  0
    7.7408   14.8634   24.1157 C   0  0  0  0  0  0  0  0  0  0  0  0
    7.9576   13.3686   25.1620 S   0  0  0  0  0  6  0  0  0  0  0  0
    8.1922   13.5700   26.5945 O   0  0  0  0  0  0  0  0  0  0  0  0
    6.5161   12.5180   24.7950 C   0  0  0  0  0  0  0  0  0  0  0  0
    5.2403   13.1445   25.0437 C   0  0  0  0  0  0  0  0  0  0  0  0
    9.2024   12.5673   24.3027 N   0  0  0  0  0  0  0  0  0  0  0  0
   10.7351   13.2092   23.9076 S   0  0  0  0  0  6  0  0  0  0  0  0
   10.9363   12.9427   22.4931 O   0  0  0  0  0  0  0  0  0  0  0  0
   10.8054   14.5741   24.4053 O   0  0  0  0  0  0  0  0  0  0  0  0
   11.7895   12.3161   24.8340 N   0  0  0  0  0  0  0  0  0  0  0  0
   12.8130   13.0929   25.5513 C   0  0  0  0  0  0  0  0  0  0  0  0
   14.2106   12.5447   25.3200 C   0  0  0  0  0  0  0  0  0  0  0  0
   14.2331   11.1052   25.8123 C   0  0  2  0  0  0  0  0  0  0  0  0
   15.6420   10.5246   25.8114 C   0  0  0  0  0  0  0  0  0  0  0  0
   16.0214    9.5420   25.2186 O   0  0  0  0  0  0  0  0  0  0  0  0
   16.4476   11.2527   26.6060 O   0  0  0  0  0  0  0  0  0  0  0  0
   17.8013   10.8119   26.7072 C   0  0  0  0  0  0  0  0  0  0  0  0
   13.2783   10.2343   25.0001 C   0  0  0  0  0  0  0  0  0  0  0  0
   12.0622   10.9516   24.3575 C   0  0  1  0  0  0  0  0  0  0  0  0
   10.8208   10.0926   24.4783 C   0  0  0  0  0  0  0  0  0  0  0  0
   10.8712    8.7014   23.9098 C   0  0  0  0  0  0  0  0  0  0  0  0
   10.0792    9.7740   23.2161 C   0  0  0  0  0  0  0  0  0  0  0  0
  1  2  1  0
  2  3  1  0
  3  4  2  0
  3  5  1  0
  5  6  1  0
  3  7  2  0
  7  8  1  0
  8  9  2  0
  8 10  2  0
  8 11  1  0
 11 12  1  0
 12 13  1  0
 13 14  1  0
 14 15  1  6
 15 16  2  0
 15 17  1  0
 17 18  1  0
 14 19  1  0
 19 20  1  0
 20 21  1  1
 21 22  1  0
 22 23  1  0
 20 11  1  0
 23 21  1  0
M  END
>  <cnnaffinity>  (50) 
-5.6061

>  <cnnaffinityIC50>  (50) 
2476.8516757935477 nanomolar

>  <smiles>  (50) 
CCS(=O)(CC)=NS(=O)(=O)N1CC[C@H](C(=O)OC)C[C@H]1C1CC1 Z4574452314

>  <ref_pdb>  (50) 
Ax0875a

>  <ref_mols>  (50) 
Ax0875a

>  <rationale>  (50) 
Enamine real space elaborations around x0875.

$$$$
Z4537887115
     RDKit          3D

 22 24  0  0  0  0  0  0  0  0999 V2000
   16.0410   11.8663   23.9277 O   0  0  0  0  0  0  0  0  0  0  0  0
   15.3540   11.1475   24.6074 C   0  0  0  0  0  0  0  0  0  0  0  0
   15.6571    9.8466   24.8244 O   0  0  0  0  0  0  0  0  0  0  0  0
   14.1129   11.5470   25.3590 C   0  0  1  0  0  0  0  0  0  0  0  0
   13.8770   13.0503   25.3701 C   0  0  0  0  0  0  0  0  0  0  0  0
   12.6891   13.2422   26.2934 C   0  0  0  0  0  0  0  0  0  0  0  0
   11.4517   12.6950   25.7018 N   0  0  0  0  0  0  0  0  0  0  0  0
   10.4396   14.0000   25.3277 S   0  0  0  0  0  6  0  0  0  0  0  0
   11.0394   14.7587   24.2372 O   0  0  0  0  0  0  0  0  0  0  0  0
   10.2267   14.6106   26.6300 O   0  0  0  0  0  0  0  0  0  0  0  0
    8.8585   13.4465   24.7383 C   0  0  0  0  0  0  0  0  0  0  0  0
    8.3973   13.5222   23.4469 C   0  0  0  0  0  0  0  0  0  0  0  0
    9.3318   13.8380   22.0438 Cl  0  0  0  0  0  0  0  0  0  0  0  0
    6.9987   13.2281   23.3545 C   0  0  0  0  0  0  0  0  0  0  0  0
    6.1143   13.2584   21.8741 Cl  0  0  0  0  0  0  0  0  0  0  0  0
    6.4444   12.9315   24.5604 C   0  0  0  0  0  0  0  0  0  0  0  0
    7.5909   13.0406   25.8323 S   0  0  0  0  0  0  0  0  0  0  0  0
   11.5755   11.5961   24.7237 C   0  0  2  0  0  0  0  0  0  0  0  0
   10.3887   10.6754   24.9287 C   0  0  0  0  0  0  0  0  0  0  0  0
   10.3167    9.3200   24.2784 C   0  0  0  0  0  0  0  0  0  0  0  0
    9.3936   10.4172   23.8384 C   0  0  0  0  0  0  0  0  0  0  0  0
   12.8761   10.7719   24.8709 C   0  0  0  0  0  0  0  0  0  0  0  0
  1  2  2  0
  2  3  1  0
  4  2  1  6
  4  5  1  0
  5  6  1  0
  6  7  1  0
  7  8  1  0
  8  9  2  0
  8 10  2  0
  8 11  1  0
 11 12  2  0
 12 13  1  0
 12 14  1  0
 14 15  1  0
 14 16  2  0
 16 17  1  0
  7 18  1  0
 18 19  1  1
 19 20  1  0
 20 21  1  0
 18 22  1  0
 22  4  1  0
 17 11  1  0
 21 19  1  0
M  END
>  <cnnaffinity>  (51) 
-5.60298

>  <cnnaffinityIC50>  (51) 
2494.709609920841 nanomolar

>  <smiles>  (51) 
O=C(O)C1CCN(S(=O)(=O)C2=C(Cl)C(Cl)=CS2)C(C2CC2)C1 Z4537887115

>  <ref_pdb>  (51) 
Ax0875a

>  <ref_mols>  (51) 
Ax0875a

>  <rationale>  (51) 
Enamine real space elaborations around x0875.

$$$$
Z4272177918
     RDKit          3D

 23 25  0  0  0  0  0  0  0  0999 V2000
   16.1905    9.6515   25.2171 C   0  0  0  0  0  0  0  0  0  0  0  0
   14.8835   10.1471   24.9132 O   0  0  0  0  0  0  0  0  0  0  0  0
   14.8192   11.3617   24.3294 C   0  0  0  0  0  0  0  0  0  0  0  0
   15.7890   11.9556   23.9289 O   0  0  0  0  0  0  0  0  0  0  0  0
   13.3910   11.9175   24.3466 C   0  0  0  0  0  0  0  0  0  0  0  0
   13.1501   12.7221   23.1290 C   0  0  0  0  0  0  0  0  0  0  0  0
   12.8388   13.2998   22.1759 N   0  0  0  0  0  0  0  0  0  0  0  0
   13.2812   12.8229   25.6115 C   0  0  0  0  0  0  0  0  0  0  0  0
   11.8256   13.0538   26.0171 C   0  0  0  0  0  0  0  0  0  0  0  0
   10.9401   12.7969   24.8763 N   0  0  0  0  0  0  0  0  0  0  0  0
    9.5310   13.7082   24.9167 S   0  0  0  0  0  6  0  0  0  0  0  0
    9.7678   14.9356   24.1760 O   0  0  0  0  0  0  0  0  0  0  0  0
    9.1147   13.7525   26.3107 O   0  0  0  0  0  0  0  0  0  0  0  0
    8.2654   12.7801   24.0291 C   0  0  0  0  0  0  0  0  0  0  0  0
    7.3312   11.9103   24.8725 C   0  0  1  0  0  0  0  0  0  0  0  0
    7.7798   11.1598   26.1595 C   0  0  0  0  0  0  0  0  0  0  0  0
    6.8566   12.0582   27.0203 C   0  0  2  0  0  0  0  0  0  0  0  0
    5.8201   11.4625   27.9432 C   0  0  0  0  0  0  0  0  0  0  0  0
    6.2047   10.4715   28.9991 C   0  0  0  0  0  0  0  0  0  0  0  0
    5.3181   10.0496   27.8541 C   0  0  0  0  0  0  0  0  0  0  0  0
    6.2955   12.6813   25.7263 C   0  0  0  0  0  0  0  0  0  0  0  0
   10.9345   11.4232   24.3475 C   0  0  0  0  0  0  0  0  0  0  0  0
   12.3289   10.8063   24.4147 C   0  0  0  0  0  0  0  0  0  0  0  0
  1  2  1  0
  2  3  1  0
  3  4  2  0
  3  5  1  0
  5  6  1  0
  6  7  3  0
  5  8  1  0
  8  9  1  0
  9 10  1  0
 10 11  1  0
 11 12  2  0
 11 13  2  0
 11 14  1  0
 15 14  1  1
 15 16  1  0
 16 17  1  0
 17 18  1  6
 18 19  1  0
 19 20  1  0
 17 21  1  0
 10 22  1  0
 22 23  1  0
 23  5  1  0
 21 15  1  0
 20 18  1  0
M  END
>  <cnnaffinity>  (52) 
-5.57109

>  <cnnaffinityIC50>  (52) 
2684.7880122479755 nanomolar

>  <smiles>  (52) 
COC(=O)C1(C#N)CCN(S(=O)(=O)CC2CC(C3CC3)C2)CC1 Z4272177918

>  <ref_pdb>  (52) 
Ax0875a

>  <ref_mols>  (52) 
Ax0875a

>  <rationale>  (52) 
Enamine real space elaborations around x0875.

$$$$
Z4574452147
     RDKit          3D

 23 24  0  0  0  0  0  0  0  0999 V2000
    3.6091   13.1033   21.3006 C   0  0  0  0  0  0  0  0  0  0  0  0
    4.5501   13.8755   22.2209 C   0  0  0  0  0  0  0  0  0  0  0  0
    6.0226   13.4979   22.0436 C   0  0  0  0  0  0  0  0  0  0  0  0
    6.9973   14.4292   22.7665 C   0  0  0  0  0  0  0  0  0  0  0  0
    6.8167   14.5289   24.2813 C   0  0  0  0  0  0  0  0  0  0  0  0
    6.9781   13.2159   25.0553 C   0  0  0  0  0  0  0  0  0  0  0  0
    8.3094   12.4801   24.8650 C   0  0  0  0  0  0  0  0  0  0  0  0
    9.6946   13.4470   25.4745 S   0  0  0  0  0  6  0  0  0  0  0  0
   10.0663   14.3668   24.3988 O   0  0  0  0  0  0  0  0  0  0  0  0
    9.2689   13.9633   26.7645 O   0  0  0  0  0  0  0  0  0  0  0  0
   11.0654   12.4637   25.7972 N   0  0  0  0  0  0  0  0  0  0  0  0
   12.1157   13.3825   26.2983 C   0  0  0  0  0  0  0  0  0  0  0  0
   13.5207   13.1261   25.7636 C   0  0  0  0  0  0  0  0  0  0  0  0
   13.8030   11.6358   25.8632 C   0  0  2  0  0  0  0  0  0  0  0  0
   15.2454   11.2920   25.5229 C   0  0  0  0  0  0  0  0  0  0  0  0
   15.6347   10.9301   24.4389 O   0  0  0  0  0  0  0  0  0  0  0  0
   16.0500   11.4371   26.5954 O   0  0  0  0  0  0  0  0  0  0  0  0
   17.4177   11.0402   26.4525 C   0  0  0  0  0  0  0  0  0  0  0  0
   12.8623   10.8956   24.9161 C   0  0  0  0  0  0  0  0  0  0  0  0
   11.4263   11.4721   24.7587 C   0  0  1  0  0  0  0  0  0  0  0  0
   10.4128   10.3426   24.7868 C   0  0  0  0  0  0  0  0  0  0  0  0
    9.6730    9.9632   23.5361 C   0  0  0  0  0  0  0  0  0  0  0  0
   10.6931    9.0286   24.1161 C   0  0  0  0  0  0  0  0  0  0  0  0
  1  2  1  0
  2  3  1  0
  3  4  1  0
  4  5  1  0
  5  6  1  0
  6  7  1  0
  7  8  1  0
  8  9  2  0
  8 10  2  0
  8 11  1  0
 11 12  1  0
 12 13  1  0
 13 14  1  0
 14 15  1  6
 15 16  2  0
 15 17  1  0
 17 18  1  0
 14 19  1  0
 19 20  1  0
 20 21  1  1
 21 22  1  0
 22 23  1  0
 20 11  1  0
 23 21  1  0
M  END
>  <cnnaffinity>  (53) 
-5.53394

>  <cnnaffinityIC50>  (53) 
2924.556392331515 nanomolar

>  <smiles>  (53) 
CCCCCCCS(=O)(=O)N1CC[C@H](C(=O)OC)C[C@H]1C1CC1 Z4574452147

>  <ref_pdb>  (53) 
Ax0875a

>  <ref_mols>  (53) 
Ax0875a

>  <rationale>  (53) 
Enamine real space elaborations around x0875.

$$$$
Z4537886173
     RDKit          3D

 22 24  0  0  0  0  0  0  0  0999 V2000
    9.3686   13.9851   22.4790 C   0  0  0  0  0  0  0  0  0  0  0  0
    8.5866   13.3798   23.5600 N   0  0  0  0  0  0  0  0  0  0  0  0
    7.3717   12.8091   23.3628 N   0  0  0  0  0  0  0  0  0  0  0  0
    6.8669   12.5775   24.5535 C   0  0  0  0  0  0  0  0  0  0  0  0
    7.8070   12.9784   25.5789 C   0  0  0  0  0  0  0  0  0  0  0  0
    7.5705   12.8832   27.4678 Br  0  0  0  0  0  0  0  0  0  0  0  0
    8.8820   13.4687   24.9023 C   0  0  0  0  0  0  0  0  0  0  0  0
   10.4293   14.2232   25.4487 S   0  0  0  0  0  6  0  0  0  0  0  0
   10.7838   15.2699   24.4811 O   0  0  0  0  0  0  0  0  0  0  0  0
   10.4176   14.7157   26.8360 O   0  0  0  0  0  0  0  0  0  0  0  0
   11.6507   13.0026   25.3224 N   0  0  0  0  0  0  0  0  0  0  0  0
   12.8100   13.0931   26.2170 C   0  0  0  0  0  0  0  0  0  0  0  0
   14.0814   12.9512   25.3761 C   0  0  0  0  0  0  0  0  0  0  0  0
   14.0471   11.7337   24.3999 C   0  0  1  0  0  0  0  0  0  0  0  0
   15.2535   10.7900   24.6023 C   0  0  0  0  0  0  0  0  0  0  0  0
   16.3759   11.2613   24.5825 O   0  0  0  0  0  0  0  0  0  0  0  0
   15.0187    9.4758   24.8383 O   0  0  0  0  0  0  0  0  0  0  0  0
   12.7080   10.9464   24.5089 C   0  0  0  0  0  0  0  0  0  0  0  0
   11.4427   11.8250   24.4782 C   0  0  1  0  0  0  0  0  0  0  0  0
   10.2349   11.0422   25.0248 C   0  0  0  0  0  0  0  0  0  0  0  0
    9.9727    9.6168   24.5224 C   0  0  0  0  0  0  0  0  0  0  0  0
    9.0687   10.7530   24.0769 C   0  0  0  0  0  0  0  0  0  0  0  0
  1  2  1  0
  2  3  1  0
  3  4  2  0
  4  5  1  0
  5  6  1  0
  5  7  2  0
  7  8  1  0
  8  9  2  0
  8 10  2  0
  8 11  1  0
 11 12  1  0
 12 13  1  0
 13 14  1  0
 14 15  1  1
 15 16  2  0
 15 17  1  0
 14 18  1  0
 18 19  1  0
 19 20  1  1
 20 21  1  0
 21 22  1  0
  7  2  1  0
 19 11  1  0
 22 20  1  0
M  END
>  <cnnaffinity>  (54) 
-5.52826

>  <cnnaffinityIC50>  (54) 
2963.0569588226385 nanomolar

>  <smiles>  (54) 
CN1N=CC(Br)=C1S(=O)(=O)N1CCC(C(=O)O)CC1C1CC1 Z4537886173

>  <ref_pdb>  (54) 
Ax0875a

>  <ref_mols>  (54) 
Ax0875a

>  <rationale>  (54) 
Enamine real space elaborations around x0875.

$$$$
Z3798133992
     RDKit          3D

 23 26  0  0  0  0  0  0  0  0999 V2000
   15.3259   10.0942   24.6647 O   0  0  0  0  0  0  0  0  0  0  0  0
   15.0925   11.2386   24.3508 C   0  0  0  0  0  0  0  0  0  0  0  0
   16.0571   12.1009   23.9773 O   0  0  0  0  0  0  0  0  0  0  0  0
   13.7402   11.9047   24.3827 C   0  0  2  0  0  0  0  0  0  0  0  0
   13.7077   12.8949   25.5650 C   0  0  0  0  0  0  0  0  0  0  0  0
   12.2951   13.0686   26.1412 C   0  0  0  0  0  0  0  0  0  0  0  0
   11.2229   12.7774   25.1849 N   0  0  0  0  0  0  0  0  0  0  0  0
   10.0296   13.9633   25.1617 S   0  0  0  0  0  6  0  0  0  0  0  0
   10.4741   14.9920   24.2251 O   0  0  0  0  0  0  0  0  0  0  0  0
    9.8515   14.2457   26.5787 O   0  0  0  0  0  0  0  0  0  0  0  0
    8.4048   13.4860   24.5259 C   0  0  0  0  0  0  0  0  0  0  0  0
    7.4010   12.8614   25.2249 C   0  0  0  0  0  0  0  0  0  0  0  0
    7.5511   12.2320   26.5604 C   0  0  0  0  0  0  0  0  0  0  0  0
    6.4523   11.3921   27.1484 C   0  0  0  0  0  0  0  0  0  0  0  0
    6.7888   12.7158   27.7622 C   0  0  0  0  0  0  0  0  0  0  0  0
    6.1510   12.9328   24.5133 C   0  0  0  0  0  0  0  0  0  0  0  0
    6.2297   13.6205   23.3471 C   0  0  0  0  0  0  0  0  0  0  0  0
    7.8277   14.1761   23.0446 S   0  0  0  0  0  0  0  0  0  0  0  0
   11.2615   11.5727   24.3709 C   0  0  0  0  0  0  0  0  0  0  0  0
   10.8235   11.7844   22.8997 C   0  0  0  0  0  0  0  0  0  0  0  0
    9.7232   10.7133   23.0837 C   0  0  0  0  0  0  0  0  0  0  0  0
   10.1214   10.5390   24.5680 C   0  0  0  0  0  0  0  0  0  0  0  0
   12.6195   10.8841   24.4799 C   0  0  0  0  0  0  0  0  0  0  0  0
  1  2  2  0
  2  3  1  0
  4  2  1  1
  4  5  1  0
  5  6  1  0
  6  7  1  0
  7  8  1  0
  8  9  2  0
  8 10  2  0
  8 11  1  0
 11 12  2  0
 12 13  1  0
 13 14  1  0
 14 15  1  0
 12 16  1  0
 16 17  2  0
 17 18  1  0
  7 19  1  0
 19 20  1  0
 20 21  1  0
 21 22  1  0
 19 23  1  0
 23  4  1  0
 18 11  1  0
 22 19  1  0
 15 13  1  0
M  END
>  <cnnaffinity>  (55) 
-5.52205

>  <cnnaffinityIC50>  (55) 
3005.7302352257116 nanomolar

>  <smiles>  (55) 
O=C(O)C1CCN(S(=O)(=O)C2=C(C3CC3)C=CS2)C2(CCC2)C1 Z3798133992

>  <ref_pdb>  (55) 
Ax0875a

>  <ref_mols>  (55) 
Ax0875a

>  <rationale>  (55) 
Enamine real space elaborations around x0875.

$$$$
Z4278740481
     RDKit          3D

 23 25  0  0  0  0  0  0  0  0999 V2000
   16.5651    9.7977   25.2559 C   0  0  0  0  0  0  0  0  0  0  0  0
   15.2258   10.2559   25.0755 O   0  0  0  0  0  0  0  0  0  0  0  0
   15.1139   11.4180   24.4001 C   0  0  0  0  0  0  0  0  0  0  0  0
   16.0662   11.9960   23.9344 O   0  0  0  0  0  0  0  0  0  0  0  0
   13.7033   11.9472   24.3756 C   0  0  2  0  0  0  0  0  0  0  0  0
   13.5439   12.9108   25.5669 C   0  0  0  0  0  0  0  0  0  0  0  0
   12.0755   13.0693   25.9616 C   0  0  0  0  0  0  0  0  0  0  0  0
   11.1872   12.7993   24.8245 N   0  0  0  0  0  0  0  0  0  0  0  0
    9.8159   13.7840   24.8847 S   0  0  0  0  0  6  0  0  0  0  0  0
   10.1303   14.9933   24.1291 O   0  0  0  0  0  0  0  0  0  0  0  0
    9.5105   13.8510   26.3095 O   0  0  0  0  0  0  0  0  0  0  0  0
    8.2340   13.1505   24.2028 C   0  0  1  0  0  0  0  0  0  0  0  0
    7.1425   14.0467   24.7858 C   0  0  0  0  0  0  0  0  0  0  0  0
    6.5585   14.3299   23.4010 C   0  0  2  0  0  0  0  0  0  0  0  0
    5.1396   13.8187   23.3115 C   0  0  0  0  0  0  0  0  0  0  0  0
    4.5772   13.8750   21.8987 C   0  0  0  0  0  0  0  0  0  0  0  0
    4.2336   14.5259   24.3159 C   0  0  0  0  0  0  0  0  0  0  0  0
    7.7394   13.5220   22.7800 C   0  0  0  0  0  0  0  0  0  0  0  0
   11.2479   11.4706   24.2103 C   0  0  0  0  0  0  0  0  0  0  0  0
   10.1323   10.4405   24.5423 C   0  0  0  0  0  0  0  0  0  0  0  0
    9.6166   10.5403   23.0933 C   0  0  0  0  0  0  0  0  0  0  0  0
   10.7927   11.4670   22.7275 C   0  0  0  0  0  0  0  0  0  0  0  0
   12.6348   10.8697   24.4310 C   0  0  0  0  0  0  0  0  0  0  0  0
  1  2  1  0
  2  3  1  0
  3  4  2  0
  5  3  1  1
  5  6  1  0
  6  7  1  0
  7  8  1  0
  8  9  1  0
  9 10  2  0
  9 11  2  0
 12  9  1  6
 12 13  1  0
 13 14  1  0
 14 15  1  1
 15 16  1  0
 15 17  1  0
 14 18  1  0
  8 19  1  0
 19 20  1  0
 20 21  1  0
 21 22  1  0
 19 23  1  0
 23  5  1  0
 18 12  1  0
 22 19  1  0
M  END
>  <cnnaffinity>  (56) 
-5.50887

>  <cnnaffinityIC50>  (56) 
3098.3466072936976 nanomolar

>  <smiles>  (56) 
COC(=O)C1CCN(S(=O)(=O)C2CC(C(C)C)C2)C2(CCC2)C1 Z4278740481

>  <ref_pdb>  (56) 
Ax0875a

>  <ref_mols>  (56) 
Ax0875a

>  <rationale>  (56) 
Enamine real space elaborations around x0875.

$$$$
PV-006621793102
     RDKit          3D

 27 28  0  0  0  0  0  0  0  0999 V2000
   15.6955   12.1181   24.6624 C   0  0  0  0  0  0  0  0  0  0  0  0
   14.4769   12.3472   23.9552 O   0  0  0  0  0  0  0  0  0  0  0  0
   13.4127   12.6416   24.7169 C   0  0  0  0  0  0  0  0  0  0  0  0
   13.4257   12.6240   25.9228 O   0  0  0  0  0  0  0  0  0  0  0  0
   12.2412   13.0924   23.8548 C   0  0  0  0  0  0  0  0  0  0  0  0
   10.9026   12.7908   24.4716 C   0  0  0  0  0  0  0  0  0  0  0  0
   10.2398   13.7539   25.2142 C   0  0  0  0  0  0  0  0  0  0  0  0
    9.0179   13.4869   25.8346 C   0  0  0  0  0  0  0  0  0  0  0  0
    8.2913   14.4366   26.4877 O   0  0  0  0  0  0  0  0  0  0  0  0
    8.7632   15.7603   26.4304 C   0  0  0  0  0  0  0  0  0  0  0  0
    8.4753   12.1963   25.7738 C   0  0  0  0  0  0  0  0  0  0  0  0
    7.2737   11.7965   26.5238 C   0  0  0  0  0  0  0  0  0  0  0  0
    6.8601   12.2799   27.6957 C   0  0  0  0  0  0  0  0  0  0  0  0
    7.5203   12.9774   28.8641 C   0  0  0  0  0  0  0  0  0  0  0  0
    6.3423   12.4856   29.7361 C   0  0  0  0  0  0  0  0  0  0  0  0
    6.6019   11.3648   30.7119 C   0  0  0  0  0  0  0  0  0  0  0  0
    5.7623   10.5339   30.9765 O   0  0  0  0  0  0  0  0  0  0  0  0
    7.8232   11.4270   31.2663 O   0  0  0  0  0  0  0  0  0  0  0  0
    8.1974   10.4622   32.2974 C   0  0  0  0  0  0  0  0  0  0  0  0
    9.6575   10.8104   32.5724 C   0  0  0  0  0  0  0  0  0  0  0  0
    8.0890    9.0271   31.7859 C   0  0  0  0  0  0  0  0  0  0  0  0
    7.3434   10.6822   33.5446 C   0  0  0  0  0  0  0  0  0  0  0  0
    5.6039   11.9842   28.4672 C   0  0  0  0  0  0  0  0  0  0  0  0
    9.1116   11.2419   24.9651 C   0  0  0  0  0  0  0  0  0  0  0  0
   10.3154   11.5262   24.3358 C   0  0  0  0  0  0  0  0  0  0  0  0
   11.0204   10.6537   23.5623 O   0  0  0  0  0  0  0  0  0  0  0  0
   10.4487    9.4038   23.2527 C   0  0  0  0  0  0  0  0  0  0  0  0
  1  2  1  0
  2  3  1  0
  3  4  2  0
  3  5  1  0
  5  6  1  0
  6  7  2  0
  7  8  1  0
  8  9  1  0
  9 10  1  0
  8 11  2  0
 11 12  1  0
 12 13  2  3
 13 14  1  0
 14 15  1  0
 15 16  1  0
 16 17  2  0
 16 18  1  0
 18 19  1  0
 19 20  1  0
 19 21  1  0
 19 22  1  0
 15 23  1  0
 11 24  1  0
 24 25  2  0
 25 26  1  0
 26 27  1  0
 25  6  1  0
 23 13  1  0
M  END
>  <cnnaffinity>  (57) 
-5.39439

>  <cnnaffinityIC50>  (57) 
4032.8307880526118 nanomolar

>  <smiles>  (57) 
COC(=O)CC1=CC(OC)=C(C=C2CC(C(=O)OC(C)(C)C)C2)C=C1OC PV-006621793102

>  <ref_pdb>  (57) 
Ax0310a

>  <ref_mols>  (57) 
Ax1019a

>  <rationale>  (57) 
Enamine real space elaborations around x1019.

$$$$
PV-005279336795
     RDKit          3D

 28 29  0  0  0  0  0  0  0  0999 V2000
   15.6814   12.1575   24.6802 C   0  0  0  0  0  0  0  0  0  0  0  0
   14.4780   12.4426   23.9671 O   0  0  0  0  0  0  0  0  0  0  0  0
   13.3896   12.6705   24.7184 C   0  0  0  0  0  0  0  0  0  0  0  0
   13.3755   12.6002   25.9226 O   0  0  0  0  0  0  0  0  0  0  0  0
   12.2216   13.1030   23.8450 C   0  0  0  0  0  0  0  0  0  0  0  0
   10.8855   12.7746   24.4451 C   0  0  0  0  0  0  0  0  0  0  0  0
   10.2314   13.7089   25.2325 C   0  0  0  0  0  0  0  0  0  0  0  0
    9.0073   13.4237   25.8371 C   0  0  0  0  0  0  0  0  0  0  0  0
    8.3379   14.3635   26.5676 O   0  0  0  0  0  0  0  0  0  0  0  0
    8.7655   15.7052   26.4778 C   0  0  0  0  0  0  0  0  0  0  0  0
    8.4475   12.1396   25.7060 C   0  0  0  0  0  0  0  0  0  0  0  0
    7.2358   11.6993   26.4199 C   0  0  0  0  0  0  0  0  0  0  0  0
    6.6608   12.2975   27.4686 C   0  0  0  0  0  0  0  0  0  0  0  0
    5.3811   11.8155   28.0702 C   0  0  0  0  0  0  0  0  0  0  0  0
    5.3142   10.3320   28.5530 C   0  0  0  0  0  0  0  0  0  0  0  0
    4.8881   10.8489   29.8433 N   0  0  0  0  0  0  0  0  0  0  0  0
    4.8566   10.2657   31.0619 C   0  0  0  0  0  0  0  0  0  0  0  0
    4.7677   10.8866   32.1041 O   0  0  0  0  0  0  0  0  0  0  0  0
    4.9159    8.9257   30.9147 O   0  0  0  0  0  0  0  0  0  0  0  0
    4.7663    8.0844   32.0905 C   0  0  0  0  0  0  0  0  0  0  0  0
    3.4009    8.3040   32.7305 C   0  0  0  0  0  0  0  0  0  0  0  0
    5.9111    8.3233   33.0649 C   0  0  0  0  0  0  0  0  0  0  0  0
    4.8528    6.6750   31.5293 C   0  0  0  0  0  0  0  0  0  0  0  0
    5.1399   12.2442   29.5453 C   0  0  0  0  0  0  0  0  0  0  0  0
    9.0906   11.2141   24.8680 C   0  0  0  0  0  0  0  0  0  0  0  0
   10.3057   11.5106   24.2607 C   0  0  0  0  0  0  0  0  0  0  0  0
   11.0076   10.6456   23.4734 O   0  0  0  0  0  0  0  0  0  0  0  0
   10.4520    9.3682   23.2422 C   0  0  0  0  0  0  0  0  0  0  0  0
  1  2  1  0
  2  3  1  0
  3  4  2  0
  3  5  1  0
  5  6  1  0
  6  7  2  0
  7  8  1  0
  8  9  1  0
  9 10  1  0
  8 11  2  0
 11 12  1  0
 12 13  2  3
 13 14  1  0
 14 15  1  0
 15 16  1  0
 16 17  1  0
 17 18  2  0
 17 19  1  0
 19 20  1  0
 20 21  1  0
 20 22  1  0
 20 23  1  0
 16 24  1  0
 11 25  1  0
 25 26  2  0
 26 27  1  0
 27 28  1  0
 26  6  1  0
 24 14  1  0
M  END
>  <cnnaffinity>  (58) 
-5.38624

>  <cnnaffinityIC50>  (58) 
4109.225741408156 nanomolar

>  <smiles>  (58) 
COC(=O)CC1=CC(OC)=C(C=CC2CN(C(=O)OC(C)(C)C)C2)C=C1OC PV-005279336795

>  <ref_pdb>  (58) 
Ax0310a

>  <ref_mols>  (58) 
Ax1019a

>  <rationale>  (58) 
Enamine real space elaborations around x1019.

$$$$
PV-005617061841
     RDKit          3D

 28 29  0  0  0  0  0  0  0  0999 V2000
   15.6087   11.9740   24.6533 C   0  0  0  0  0  0  0  0  0  0  0  0
   14.3748   12.2098   23.9766 O   0  0  0  0  0  0  0  0  0  0  0  0
   13.3518   12.6230   24.7418 C   0  0  0  0  0  0  0  0  0  0  0  0
   13.3840   12.6803   25.9464 O   0  0  0  0  0  0  0  0  0  0  0  0
   12.1816   13.0680   23.8833 C   0  0  0  0  0  0  0  0  0  0  0  0
   10.8516   12.7836   24.5168 C   0  0  0  0  0  0  0  0  0  0  0  0
   10.1561   13.7757   25.1866 C   0  0  0  0  0  0  0  0  0  0  0  0
    8.9040   13.5185   25.7429 C   0  0  0  0  0  0  0  0  0  0  0  0
    8.1811   14.4536   26.4238 O   0  0  0  0  0  0  0  0  0  0  0  0
    8.7239   15.7509   26.4685 C   0  0  0  0  0  0  0  0  0  0  0  0
    8.3295   12.2428   25.6301 C   0  0  0  0  0  0  0  0  0  0  0  0
    6.9730   11.9749   26.1710 C   0  0  0  0  0  0  0  0  0  0  0  0
    6.7665   10.9753   27.0281 C   0  0  0  0  0  0  0  0  0  0  0  0
    5.4776   10.7796   27.7665 C   0  0  0  0  0  0  0  0  0  0  0  0
    4.6274   11.9643   27.7394 N   0  0  0  0  0  0  0  0  0  0  0  0
    3.6616   12.1519   28.6890 C   0  0  0  0  0  0  0  0  0  0  0  0
    3.0489   13.1960   28.8109 O   0  0  0  0  0  0  0  0  0  0  0  0
    3.4758   11.0444   29.4330 O   0  0  0  0  0  0  0  0  0  0  0  0
    2.4518   11.0393   30.4775 C   0  0  0  0  0  0  0  0  0  0  0  0
    2.5719    9.6319   31.0496 C   0  0  0  0  0  0  0  0  0  0  0  0
    2.7685   12.0889   31.5427 C   0  0  0  0  0  0  0  0  0  0  0  0
    1.0771   11.2652   29.8511 C   0  0  0  0  0  0  0  0  0  0  0  0
    4.9558   13.1457   26.9540 C   0  0  0  0  0  0  0  0  0  0  0  0
    5.7936   12.8063   25.7349 C   0  0  0  0  0  0  0  0  0  0  0  0
    9.0666   11.2270   25.0153 C   0  0  0  0  0  0  0  0  0  0  0  0
   10.3032   11.5007   24.4426 C   0  0  0  0  0  0  0  0  0  0  0  0
   11.0820   10.5861   23.7944 O   0  0  0  0  0  0  0  0  0  0  0  0
   10.4532    9.4416   23.2614 C   0  0  0  0  0  0  0  0  0  0  0  0
  1  2  1  0
  2  3  1  0
  3  4  2  0
  3  5  1  0
  5  6  1  0
  6  7  2  0
  7  8  1  0
  8  9  1  0
  9 10  1  0
  8 11  2  0
 11 12  1  0
 12 13  2  0
 13 14  1  0
 14 15  1  0
 15 16  1  0
 16 17  2  0
 16 18  1  0
 18 19  1  0
 19 20  1  0
 19 21  1  0
 19 22  1  0
 15 23  1  0
 23 24  1  0
 11 25  1  0
 25 26  2  0
 26 27  1  0
 27 28  1  0
 26  6  1  0
 24 12  1  0
M  END
>  <cnnaffinity>  (59) 
-5.34293

>  <cnnaffinityIC50>  (59) 
4540.147892910341 nanomolar

>  <smiles>  (59) 
COC(=O)CC1=CC(OC)=C(C2=CCN(C(=O)OC(C)(C)C)CC2)C=C1OC PV-005617061841

>  <ref_pdb>  (59) 
Ax0310a

>  <ref_mols>  (59) 
Ax1019a

>  <rationale>  (59) 
Enamine real space elaborations around x1019.

$$$$
Z5058626624
     RDKit          3D

 27 29  0  0  0  0  0  0  0  0999 V2000
   15.6283   12.0007   24.6524 C   0  0  0  0  0  0  0  0  0  0  0  0
   14.3888   12.2125   23.9798 O   0  0  0  0  0  0  0  0  0  0  0  0
   13.3659   12.6212   24.7457 C   0  0  0  0  0  0  0  0  0  0  0  0
   13.3942   12.6686   25.9496 O   0  0  0  0  0  0  0  0  0  0  0  0
   12.2030   13.0714   23.8784 C   0  0  0  0  0  0  0  0  0  0  0  0
   10.8716   12.7905   24.5044 C   0  0  0  0  0  0  0  0  0  0  0  0
   10.1784   13.7830   25.1781 C   0  0  0  0  0  0  0  0  0  0  0  0
    8.9265   13.5212   25.7332 C   0  0  0  0  0  0  0  0  0  0  0  0
    8.2041   14.4480   26.4242 O   0  0  0  0  0  0  0  0  0  0  0  0
    8.7400   15.7485   26.4641 C   0  0  0  0  0  0  0  0  0  0  0  0
    8.3531   12.2475   25.6058 C   0  0  0  0  0  0  0  0  0  0  0  0
    6.9867   11.9872   26.1181 C   0  0  0  0  0  0  0  0  0  0  0  0
    6.7598   10.9850   26.9666 C   0  0  0  0  0  0  0  0  0  0  0  0
    5.4695   10.8110   27.7029 C   0  0  0  0  0  0  0  0  0  0  0  0
    4.6146   11.9931   27.6594 N   0  0  0  0  0  0  0  0  0  0  0  0
    3.6734   12.1342   28.6407 C   0  0  0  0  0  0  0  0  0  0  0  0
    3.0630   13.3260   28.7421 N   0  0  0  0  0  0  0  0  0  0  0  0
    2.1422   13.4460   29.6897 C   0  0  0  0  0  0  0  0  0  0  0  0
    1.7904   12.4065   30.5395 C   0  0  0  0  0  0  0  0  0  0  0  0
    2.4798   11.2173   30.3424 C   0  0  0  0  0  0  0  0  0  0  0  0
    3.4164   11.0614   29.4137 N   0  0  0  0  0  0  0  0  0  0  0  0
    4.9825   13.1825   26.8968 C   0  0  0  0  0  0  0  0  0  0  0  0
    5.8187   12.8339   25.6760 C   0  0  0  0  0  0  0  0  0  0  0  0
    9.0937   11.2301   24.9983 C   0  0  0  0  0  0  0  0  0  0  0  0
   10.3288   11.5071   24.4266 C   0  0  0  0  0  0  0  0  0  0  0  0
   11.1029   10.5947   23.7701 O   0  0  0  0  0  0  0  0  0  0  0  0
   10.4677    9.4425   23.2615 C   0  0  0  0  0  0  0  0  0  0  0  0
  1  2  1  0
  2  3  1  0
  3  4  2  0
  3  5  1  0
  5  6  1  0
  6  7  2  0
  7  8  1  0
  8  9  1  0
  9 10  1  0
  8 11  2  0
 11 12  1  0
 12 13  2  0
 13 14  1  0
 14 15  1  0
 15 16  1  0
 16 17  2  0
 17 18  1  0
 18 19  2  0
 19 20  1  0
 20 21  2  0
 15 22  1  0
 22 23  1  0
 11 24  1  0
 24 25  2  0
 25 26  1  0
 26 27  1  0
 25  6  1  0
 23 12  1  0
 21 16  1  0
M  END
>  <cnnaffinity>  (60) 
-5.31001

>  <cnnaffinityIC50>  (60) 
4897.675419241995 nanomolar

>  <smiles>  (60) 
COC(=O)CC1=CC(OC)=C(C2=CCN(C3=NC=CC=N3)CC2)C=C1OC Z5058626624

>  <ref_pdb>  (60) 
Ax0310a

>  <ref_mols>  (60) 
Ax1019a

>  <rationale>  (60) 
Enamine real space elaborations around x1019.

$$$$
PV-006425117631
     RDKit          3D

 25 26  0  0  0  0  0  0  0  0999 V2000
   15.7364   12.2088   24.6841 C   0  0  0  0  0  0  0  0  0  0  0  0
   14.5315   12.4640   23.9632 O   0  0  0  0  0  0  0  0  0  0  0  0
   13.4387   12.6730   24.7172 C   0  0  0  0  0  0  0  0  0  0  0  0
   13.4224   12.5888   25.9187 O   0  0  0  0  0  0  0  0  0  0  0  0
   12.2699   13.1063   23.8476 C   0  0  0  0  0  0  0  0  0  0  0  0
   10.9157   12.8260   24.4505 C   0  0  0  0  0  0  0  0  0  0  0  0
   10.1934   13.8178   25.1020 C   0  0  0  0  0  0  0  0  0  0  0  0
    8.9579   13.5577   25.6696 C   0  0  0  0  0  0  0  0  0  0  0  0
    8.2403   14.5805   26.2551 O   0  0  0  0  0  0  0  0  0  0  0  0
    8.4811   14.7199   27.6442 C   0  0  0  0  0  0  0  0  0  0  0  0
    8.4081   12.2703   25.6268 C   0  0  0  0  0  0  0  0  0  0  0  0
    7.1274   12.0421   26.3087 C   0  0  0  0  0  0  0  0  0  0  0  0
    6.6154   10.8631   26.6768 C   0  0  0  0  0  0  0  0  0  0  0  0
    5.3303   10.6773   27.3683 C   0  0  0  0  0  0  0  0  0  0  0  0
    4.9596    9.3825   27.7440 C   0  0  0  0  0  0  0  0  0  0  0  0
    3.7218    9.1274   28.3217 C   0  0  0  0  0  0  0  0  0  0  0  0
    2.8440   10.1799   28.5201 C   0  0  0  0  0  0  0  0  0  0  0  0
    1.6250    9.9629   29.0303 F   0  0  0  0  0  0  0  0  0  0  0  0
    3.2137   11.4793   28.1873 C   0  0  0  0  0  0  0  0  0  0  0  0
    2.3396   12.4739   28.4009 F   0  0  0  0  0  0  0  0  0  0  0  0
    4.4519   11.7392   27.6296 C   0  0  0  0  0  0  0  0  0  0  0  0
    9.1117   11.2640   24.9538 C   0  0  0  0  0  0  0  0  0  0  0  0
   10.3469   11.5451   24.3710 C   0  0  0  0  0  0  0  0  0  0  0  0
   11.0951   10.6302   23.6935 O   0  0  0  0  0  0  0  0  0  0  0  0
   10.4837    9.4112   23.3367 C   0  0  0  0  0  0  0  0  0  0  0  0
  1  2  1  0
  2  3  1  0
  3  4  2  0
  3  5  1  0
  5  6  1  0
  6  7  2  0
  7  8  1  0
  8  9  1  0
  9 10  1  0
  8 11  2  0
 11 12  1  0
 12 13  2  3
 13 14  1  0
 14 15  2  0
 15 16  1  0
 16 17  2  0
 17 18  1  0
 17 19  1  0
 19 20  1  0
 19 21  2  0
 11 22  1  0
 22 23  2  0
 23 24  1  0
 24 25  1  0
 23  6  1  0
 21 14  1  0
M  END
>  <cnnaffinity>  (61) 
-5.29096

>  <cnnaffinityIC50>  (61) 
5117.289653493571 nanomolar

>  <smiles>  (61) 
COC(=O)CC1=CC(OC)=C(C=CC2=CC=C(F)C(F)=C2)C=C1OC PV-006425117631

>  <ref_pdb>  (61) 
Ax0310a

>  <ref_mols>  (61) 
Ax1019a

>  <rationale>  (61) 
Enamine real space elaborations around x1019.

$$$$
Z4383247673
     RDKit          3D

 23 26  0  0  0  0  0  0  0  0999 V2000
   11.4853   13.8477   24.9359 O   0  0  0  0  0  0  0  0  0  0  0  0
   11.8183   13.2135   23.9453 C   0  0  0  0  0  0  0  0  0  0  0  0
   13.0835   13.6068   23.2193 C   0  0  0  0  0  0  0  0  0  0  0  0
   12.6077   14.4163   22.1157 N   0  0  0  0  0  0  0  0  0  0  0  0
   12.8632   15.7333   21.9361 N   0  0  0  0  0  0  0  0  0  0  0  0
   12.1478   16.0918   20.9404 N   0  0  0  0  0  0  0  0  0  0  0  0
   11.4547   14.9663   20.5386 C   0  0  0  0  0  0  0  0  0  0  0  0
   10.5091   14.8398   19.3894 C   0  0  0  0  0  0  0  0  0  0  0  0
   10.0287   16.0032   18.5234 C   0  0  0  0  0  0  0  0  0  0  0  0
   11.1314   15.0709   18.0231 C   0  0  0  0  0  0  0  0  0  0  0  0
   11.6953   13.9230   21.2692 N   0  0  0  0  0  0  0  0  0  0  0  0
   11.0312   12.1748   23.4576 N   0  0  0  0  0  0  0  0  0  0  0  0
    9.8268   11.7297   24.0572 C   0  0  0  0  0  0  0  0  0  0  0  0
    9.1075   12.6614   24.7984 C   0  0  0  0  0  0  0  0  0  0  0  0
    7.9717   12.2656   25.4928 C   0  0  0  0  0  0  0  0  0  0  0  0
    7.2808   13.1807   26.2958 C   0  0  0  0  0  0  0  0  0  0  0  0
    6.1330   12.7715   26.9784 C   0  0  0  0  0  0  0  0  0  0  0  0
    5.6768   11.4533   26.8628 C   0  0  0  0  0  0  0  0  0  0  0  0
    6.3828   10.5364   26.0725 C   0  0  0  0  0  0  0  0  0  0  0  0
    7.5342   10.9261   25.3872 C   0  0  0  0  0  0  0  0  0  0  0  0
    8.1894   10.0186   24.6447 N   0  0  0  0  0  0  0  0  0  0  0  0
    9.3122   10.3988   23.9963 C   0  0  0  0  0  0  0  0  0  0  0  0
   10.2508    9.0414   23.0284 Br  0  0  0  0  0  0  0  0  0  0  0  0
  1  2  2  0
  2  3  1  0
  3  4  1  0
  4  5  1  0
  5  6  2  0
  6  7  1  0
  7  8  1  0
  8  9  1  0
  9 10  1  0
  7 11  2  0
  2 12  1  0
 12 13  1  0
 13 14  2  0
 14 15  1  0
 15 16  2  0
 16 17  1  0
 17 18  2  0
 18 19  1  0
 19 20  2  0
 20 21  1  0
 21 22  2  0
 22 23  1  0
 11  4  1  0
 22 13  1  0
 10  8  1  0
 20 15  1  0
M  END
>  <cnnaffinity>  (62) 
-6.22951

>  <cnnaffinityIC50>  (62) 
589.5084029766052 nanomolar

>  <smiles>  (62) 
O=C(CN1N=NC(C2CC2)=N1)NC1=CC2=CC=CC=C2N=C1Br Z4383247673

>  <ref_pdb>  (62) 
Ax0310a

>  <ref_mols>  (62) 
Ax1097a,Ax0310a

>  <rationale>  (62) 
Enamine real space elaborations around a merge of x1097 and x0310.

$$$$
Z4048901029
     RDKit          3D

 22 24  0  0  0  0  0  0  0  0999 V2000
   12.5715   13.7969   18.9248 N   0  0  0  0  0  0  0  0  0  0  0  0
   12.3876   13.9421   20.0577 C   0  0  0  0  0  0  0  0  0  0  0  0
   12.0325   14.1848   21.4660 C   0  0  0  0  0  0  0  0  0  0  0  0
   10.6142   13.5770   21.6222 C   0  0  0  0  0  0  0  0  0  0  0  0
    9.6305   14.2245   21.3208 O   0  0  0  0  0  0  0  0  0  0  0  0
   10.5460   12.2935   22.1388 N   0  0  0  0  0  0  0  0  0  0  0  0
    9.5955   11.9115   23.0850 C   0  0  0  0  0  0  0  0  0  0  0  0
    8.8318   12.8516   23.7227 C   0  0  0  0  0  0  0  0  0  0  0  0
    7.9815   12.4780   24.7797 C   0  0  0  0  0  0  0  0  0  0  0  0
    7.2462   13.4323   25.5264 C   0  0  0  0  0  0  0  0  0  0  0  0
    6.4262   13.0313   26.5455 C   0  0  0  0  0  0  0  0  0  0  0  0
    6.3060   11.6515   26.8560 C   0  0  0  0  0  0  0  0  0  0  0  0
    7.0083   10.7075   26.1499 C   0  0  0  0  0  0  0  0  0  0  0  0
    7.8822   11.1086   25.1054 C   0  0  0  0  0  0  0  0  0  0  0  0
    8.6135   10.1645   24.4370 N   0  0  0  0  0  0  0  0  0  0  0  0
    9.4243   10.5544   23.5111 C   0  0  0  0  0  0  0  0  0  0  0  0
   10.3866    9.3293   22.7135 Cl  0  0  0  0  0  0  0  0  0  0  0  0
   13.0728   13.6290   22.4628 C   0  0  0  0  0  0  0  0  0  0  0  0
   12.6546   13.8393   23.9179 C   0  0  0  0  0  0  0  0  0  0  0  0
   12.4318   15.3268   24.1795 C   0  0  0  0  0  0  0  0  0  0  0  0
   11.5061   15.9555   23.1450 C   0  0  0  0  0  0  0  0  0  0  0  0
   11.9795   15.7141   21.7171 C   0  0  0  0  0  0  0  0  0  0  0  0
  1  2  3  0
  2  3  1  0
  3  4  1  0
  4  5  2  0
  4  6  1  0
  6  7  1  0
  7  8  2  0
  8  9  1  0
  9 10  2  0
 10 11  1  0
 11 12  2  0
 12 13  1  0
 13 14  2  0
 14 15  1  0
 15 16  2  0
 16 17  1  0
  3 18  1  0
 18 19  1  0
 19 20  1  0
 20 21  1  0
 21 22  1  0
 22  3  1  0
 16  7  1  0
 14  9  1  0
M  END
>  <cnnaffinity>  (63) 
-6.22266

>  <cnnaffinityIC50>  (63) 
598.8802623214531 nanomolar

>  <smiles>  (63) 
N#CC1(C(=O)NC2=CC3=CC=CC=C3N=C2Cl)CCCCC1 Z4048901029

>  <ref_pdb>  (63) 
Ax0310a

>  <ref_mols>  (63) 
Ax1097a,Ax0310a

>  <rationale>  (63) 
Enamine real space elaborations around a merge of x1097 and x0310.

$$$$
Z4383247638
     RDKit          3D

 23 25  0  0  0  0  0  0  0  0999 V2000
   13.1496   14.3575   24.0124 C   0  0  0  0  0  0  0  0  0  0  0  0
   12.8572   14.8662   22.5979 C   0  0  0  0  0  0  0  0  0  0  0  0
   11.9006   16.0572   22.7052 C   0  0  0  0  0  0  0  0  0  0  0  0
   12.1955   13.7530   21.7544 C   0  0  1  0  0  0  0  0  0  0  0  0
   10.8727   13.3149   22.4162 C   0  0  0  0  0  0  0  0  0  0  0  0
    9.9038   14.0646   22.4283 O   0  0  0  0  0  0  0  0  0  0  0  0
   10.8101   12.0964   23.0806 N   0  0  0  0  0  0  0  0  0  0  0  0
    9.7291   11.6606   23.8911 C   0  0  0  0  0  0  0  0  0  0  0  0
    9.0060   12.6361   24.5800 C   0  0  0  0  0  0  0  0  0  0  0  0
    7.9610   12.2421   25.4159 C   0  0  0  0  0  0  0  0  0  0  0  0
    7.2476   13.1929   26.1603 C   0  0  0  0  0  0  0  0  0  0  0  0
    6.1812   12.7849   26.9714 C   0  0  0  0  0  0  0  0  0  0  0  0
    5.8218   11.4353   27.0342 C   0  0  0  0  0  0  0  0  0  0  0  0
    6.5473   10.4916   26.2990 C   0  0  0  0  0  0  0  0  0  0  0  0
    7.6268   10.8712   25.5010 C   0  0  0  0  0  0  0  0  0  0  0  0
    8.3070    9.9212   24.8410 N   0  0  0  0  0  0  0  0  0  0  0  0
    9.3442   10.2969   24.0618 C   0  0  0  0  0  0  0  0  0  0  0  0
   10.2581    8.9069   23.1104 Br  0  0  0  0  0  0  0  0  0  0  0  0
   11.9770   14.2456   20.3714 N   0  0  0  0  0  0  0  0  0  0  0  0
   12.8595   14.1922   19.3171 C   0  0  0  0  0  0  0  0  0  0  0  0
   12.3220   14.7920   18.2991 N   0  0  0  0  0  0  0  0  0  0  0  0
   11.0974   15.2275   18.7182 N   0  0  0  0  0  0  0  0  0  0  0  0
   10.8832   14.9169   19.9487 N   0  0  0  0  0  0  0  0  0  0  0  0
  1  2  1  0
  2  3  1  0
  4  2  1  1
  4  5  1  0
  5  6  2  0
  5  7  1  0
  7  8  1  0
  8  9  2  0
  9 10  1  0
 10 11  2  0
 11 12  1  0
 12 13  2  0
 13 14  1  0
 14 15  2  0
 15 16  1  0
 16 17  2  0
 17 18  1  0
  4 19  1  0
 19 20  1  0
 20 21  2  0
 21 22  1  0
 22 23  2  0
 17  8  1  0
 23 19  1  0
 15 10  1  0
M  END
>  <cnnaffinity>  (64) 
-6.18839

>  <cnnaffinityIC50>  (64) 
648.0522159742167 nanomolar

>  <smiles>  (64) 
CC(C)C(C(=O)NC1=CC2=CC=CC=C2N=C1Br)N1C=NN=N1 Z4383247638

>  <ref_pdb>  (64) 
Ax0310a

>  <ref_mols>  (64) 
Ax1097a,Ax0310a

>  <rationale>  (64) 
Enamine real space elaborations around a merge of x1097 and x0310.

$$$$
Z4375780482
     RDKit          3D

 23 25  0  0  0  0  0  0  0  0999 V2000
   11.8966   16.0683   22.6620 C   0  0  0  0  0  0  0  0  0  0  0  0
   12.8495   14.8715   22.5778 C   0  0  0  0  0  0  0  0  0  0  0  0
   13.1261   14.3790   24.0024 C   0  0  0  0  0  0  0  0  0  0  0  0
   12.1935   13.7530   21.7369 C   0  0  1  0  0  0  0  0  0  0  0  0
   10.8613   13.3323   22.3809 C   0  0  0  0  0  0  0  0  0  0  0  0
    9.9053   14.0989   22.4259 O   0  0  0  0  0  0  0  0  0  0  0  0
   10.7948   12.1107   23.0459 N   0  0  0  0  0  0  0  0  0  0  0  0
    9.7216   11.6771   23.8651 C   0  0  0  0  0  0  0  0  0  0  0  0
    9.0009   12.6510   24.5606 C   0  0  0  0  0  0  0  0  0  0  0  0
    7.9639   12.2521   25.4058 C   0  0  0  0  0  0  0  0  0  0  0  0
    7.2499   13.1992   26.1552 C   0  0  0  0  0  0  0  0  0  0  0  0
    6.1866   12.7899   26.9680 C   0  0  0  0  0  0  0  0  0  0  0  0
    5.8281   11.4401   27.0298 C   0  0  0  0  0  0  0  0  0  0  0  0
    6.5548   10.4973   26.2954 C   0  0  0  0  0  0  0  0  0  0  0  0
    7.6343   10.8781   25.4952 C   0  0  0  0  0  0  0  0  0  0  0  0
    8.3179    9.9288   24.8344 N   0  0  0  0  0  0  0  0  0  0  0  0
    9.3474   10.3072   24.0459 C   0  0  0  0  0  0  0  0  0  0  0  0
   10.2707    8.9145   23.1015 Br  0  0  0  0  0  0  0  0  0  0  0  0
   11.9775   14.2252   20.3527 N   0  0  0  0  0  0  0  0  0  0  0  0
   12.8844   14.1904   19.3054 C   0  0  0  0  0  0  0  0  0  0  0  0
   12.3702   14.7602   18.2540 N   0  0  0  0  0  0  0  0  0  0  0  0
   11.1074   15.1297   18.6882 C   0  0  0  0  0  0  0  0  0  0  0  0
   10.8423   14.8244   19.9367 N   0  0  0  0  0  0  0  0  0  0  0  0
  1  2  1  0
  2  3  1  0
  4  2  1  1
  4  5  1  0
  5  6  2  0
  5  7  1  0
  7  8  1  0
  8  9  2  0
  9 10  1  0
 10 11  2  0
 11 12  1  0
 12 13  2  0
 13 14  1  0
 14 15  2  0
 15 16  1  0
 16 17  2  0
 17 18  1  0
  4 19  1  0
 19 20  1  0
 20 21  2  0
 21 22  1  0
 22 23  2  0
 17  8  1  0
 23 19  1  0
 15 10  1  0
M  END
>  <cnnaffinity>  (65) 
-6.17705

>  <cnnaffinityIC50>  (65) 
665.1965682079727 nanomolar

>  <smiles>  (65) 
CC(C)C(C(=O)NC1=CC2=CC=CC=C2N=C1Br)N1C=NC=N1 Z4375780482

>  <ref_pdb>  (65) 
Ax0310a

>  <ref_mols>  (65) 
Ax1097a,Ax0310a

>  <rationale>  (65) 
Enamine real space elaborations around a merge of x1097 and x0310.

$$$$
Z3084362121
     RDKit          3D

 23 26  0  0  0  0  0  0  0  0999 V2000
    9.8923   13.8747   22.2277 O   0  0  0  0  0  0  0  0  0  0  0  0
   10.8865   13.1602   22.3053 C   0  0  0  0  0  0  0  0  0  0  0  0
   10.8213   12.0038   23.0757 N   0  0  0  0  0  0  0  0  0  0  0  0
    9.7282   11.6193   23.8926 C   0  0  0  0  0  0  0  0  0  0  0  0
    9.0257   12.6066   24.5929 C   0  0  0  0  0  0  0  0  0  0  0  0
    7.9653   12.2311   25.4249 C   0  0  0  0  0  0  0  0  0  0  0  0
    7.2447   13.1801   26.1704 C   0  0  0  0  0  0  0  0  0  0  0  0
    6.1727   12.7750   26.9771 C   0  0  0  0  0  0  0  0  0  0  0  0
    5.8113   11.4279   27.0450 C   0  0  0  0  0  0  0  0  0  0  0  0
    6.5373   10.4851   26.3115 C   0  0  0  0  0  0  0  0  0  0  0  0
    7.6167   10.8635   25.5103 C   0  0  0  0  0  0  0  0  0  0  0  0
    8.2833    9.9064   24.8453 N   0  0  0  0  0  0  0  0  0  0  0  0
    9.3209   10.2666   24.0639 C   0  0  0  0  0  0  0  0  0  0  0  0
   10.2288    8.8780   23.1089 Br  0  0  0  0  0  0  0  0  0  0  0  0
   12.2274   13.6037   21.6796 C   0  0  2  0  0  0  0  0  0  0  0  0
   12.9756   14.5403   22.6617 C   0  0  0  0  0  0  0  0  0  0  0  0
   12.2955   15.9169   22.7609 C   0  0  0  0  0  0  0  0  0  0  0  0
   12.1732   16.5718   21.3739 C   0  0  0  0  0  0  0  0  0  0  0  0
   11.6139   15.6244   20.3480 C   0  0  0  0  0  0  0  0  0  0  0  0
   10.8892   15.8196   19.2749 N   0  0  0  0  0  0  0  0  0  0  0  0
   11.0888   14.6611   18.5521 C   0  0  0  0  0  0  0  0  0  0  0  0
   11.7631   13.7502   19.1948 N   0  0  0  0  0  0  0  0  0  0  0  0
   12.0000   14.3101   20.3988 N   0  0  0  0  0  0  0  0  0  0  0  0
  1  2  2  0
  2  3  1  0
  3  4  1  0
  4  5  2  0
  5  6  1  0
  6  7  2  0
  7  8  1  0
  8  9  2  0
  9 10  1  0
 10 11  2  0
 11 12  1  0
 12 13  2  0
 13 14  1  0
 15  2  1  1
 15 16  1  0
 16 17  1  0
 17 18  1  0
 18 19  1  0
 19 20  2  0
 20 21  1  0
 21 22  2  0
 22 23  1  0
 13  4  1  0
 23 15  1  0
 11  6  1  0
 23 19  1  0
M  END
>  <cnnaffinity>  (66) 
-6.16229

>  <cnnaffinityIC50>  (66) 
688.1926024931407 nanomolar

>  <smiles>  (66) 
O=C(NC1=CC2=CC=CC=C2N=C1Br)C1CCCC2=NC=NN21 Z3084362121

>  <ref_pdb>  (66) 
Ax0310a

>  <ref_mols>  (66) 
Ax1097a,Ax0310a

>  <rationale>  (66) 
Enamine real space elaborations around a merge of x1097 and x0310.

$$$$
Z4410448635
     RDKit          3D

 23 26  0  0  0  0  0  0  0  0999 V2000
   11.4411   13.6201   24.6436 O   0  0  0  0  0  0  0  0  0  0  0  0
   11.5734   13.0111   23.5894 C   0  0  0  0  0  0  0  0  0  0  0  0
   12.4463   13.6055   22.4856 C   0  0  0  0  0  0  0  0  0  0  0  0
   11.6481   14.5915   21.6056 C   0  0  0  0  0  0  0  0  0  0  0  0
   11.9975   14.6600   20.1356 C   0  0  0  0  0  0  0  0  0  0  0  0
   13.1512   15.0800   19.7010 N   0  0  0  0  0  0  0  0  0  0  0  0
   12.9562   14.9493   18.3730 N   0  0  0  0  0  0  0  0  0  0  0  0
   11.7494   14.4497   18.0237 N   0  0  0  0  0  0  0  0  0  0  0  0
   11.1328   14.2781   19.1220 N   0  0  0  0  0  0  0  0  0  0  0  0
   10.2071   14.9294   22.0069 C   0  0  0  0  0  0  0  0  0  0  0  0
   11.3391   15.9085   22.3013 C   0  0  0  0  0  0  0  0  0  0  0  0
   10.8135   11.8822   23.3169 N   0  0  0  0  0  0  0  0  0  0  0  0
    9.6770   11.5041   24.0663 C   0  0  0  0  0  0  0  0  0  0  0  0
    8.9957   12.4988   24.7675 C   0  0  0  0  0  0  0  0  0  0  0  0
    7.8786   12.1526   25.5249 C   0  0  0  0  0  0  0  0  0  0  0  0
    7.1838   13.1290   26.2541 C   0  0  0  0  0  0  0  0  0  0  0  0
    6.0826   12.7785   27.0404 C   0  0  0  0  0  0  0  0  0  0  0  0
    5.1553   14.1177   28.0444 Br  0  0  0  0  0  0  0  0  0  0  0  0
    5.6656   11.4450   27.0876 C   0  0  0  0  0  0  0  0  0  0  0  0
    6.3482   10.4680   26.3458 C   0  0  0  0  0  0  0  0  0  0  0  0
    7.4581   10.8020   25.5608 C   0  0  0  0  0  0  0  0  0  0  0  0
    8.0935    9.8327   24.8714 N   0  0  0  0  0  0  0  0  0  0  0  0
    9.1768   10.1808   24.1406 C   0  0  0  0  0  0  0  0  0  0  0  0
  1  2  2  0
  2  3  1  0
  3  4  1  0
  4  5  1  0
  5  6  2  0
  6  7  1  0
  7  8  1  0
  8  9  2  0
  4 10  1  0
 10 11  1  0
  2 12  1  0
 12 13  1  0
 13 14  2  0
 14 15  1  0
 15 16  2  0
 16 17  1  0
 17 18  1  0
 17 19  2  0
 19 20  1  0
 20 21  2  0
 21 22  1  0
 22 23  2  0
 11  4  1  0
 23 13  1  0
  9  5  1  0
 21 15  1  0
M  END
>  <cnnaffinity>  (67) 
-6.14051

>  <cnnaffinityIC50>  (67) 
723.5857409110256 nanomolar

>  <smiles>  (67) 
O=C(CC1(C2=NNN=N2)CC1)NC1=CC2=CC(Br)=CC=C2N=C1 Z4410448635

>  <ref_pdb>  (67) 
Ax0310a

>  <ref_mols>  (67) 
Ax1097a,Ax0310a

>  <rationale>  (67) 
Enamine real space elaborations around a merge of x1097 and x0310.

$$$$
Z5361339904
     RDKit          3D

 23 26  0  0  0  0  0  0  0  0999 V2000
   11.5040   13.7725   24.5404 O   0  0  0  0  0  0  0  0  0  0  0  0
   11.6313   13.1943   23.4681 C   0  0  0  0  0  0  0  0  0  0  0  0
   10.8880   12.0567   23.1709 N   0  0  0  0  0  0  0  0  0  0  0  0
    9.7877   11.6136   23.9375 C   0  0  0  0  0  0  0  0  0  0  0  0
    9.1169   12.5821   24.6801 C   0  0  0  0  0  0  0  0  0  0  0  0
    8.0219   12.2183   25.4511 C   0  0  0  0  0  0  0  0  0  0  0  0
    7.3194   13.1887   26.1780 C   0  0  0  0  0  0  0  0  0  0  0  0
    6.2210   12.8143   26.9527 C   0  0  0  0  0  0  0  0  0  0  0  0
    5.8282   11.4756   27.0136 C   0  0  0  0  0  0  0  0  0  0  0  0
    6.5275   10.5126   26.2734 C   0  0  0  0  0  0  0  0  0  0  0  0
    7.6227   10.8637   25.4817 C   0  0  0  0  0  0  0  0  0  0  0  0
    8.2546    9.9126   24.7683 N   0  0  0  0  0  0  0  0  0  0  0  0
    9.3092   10.2709   24.0028 C   0  0  0  0  0  0  0  0  0  0  0  0
   10.1666    8.8887   22.9895 Br  0  0  0  0  0  0  0  0  0  0  0  0
   12.5236   13.7512   22.3536 C   0  0  2  0  0  0  0  0  0  0  0  0
   13.2246   15.0866   22.6185 C   0  0  0  0  0  0  0  0  0  0  0  0
   12.5342   15.6903   21.4077 C   0  0  0  0  0  0  0  0  0  0  0  0
   11.8055   14.3704   21.1217 C   0  0  2  0  0  0  0  0  0  0  0  0
   10.2795   14.4113   21.1198 C   0  0  0  0  0  0  0  0  0  0  0  0
    9.5254   14.0445   20.1063 N   0  0  0  0  0  0  0  0  0  0  0  0
    8.2744   14.1575   20.6050 N   0  0  0  0  0  0  0  0  0  0  0  0
    8.3071   14.5947   21.9077 C   0  0  0  0  0  0  0  0  0  0  0  0
    9.5474   14.7652   22.2510 N   0  0  0  0  0  0  0  0  0  0  0  0
  1  2  2  0
  2  3  1  0
  3  4  1  0
  4  5  2  0
  5  6  1  0
  6  7  2  0
  7  8  1  0
  8  9  2  0
  9 10  1  0
 10 11  2  0
 11 12  1  0
 12 13  2  0
 13 14  1  0
 15  2  1  1
 15 16  1  0
 16 17  1  0
 17 18  1  0
 18 19  1  1
 19 20  2  0
 20 21  1  0
 21 22  1  0
 22 23  2  0
 13  4  1  0
 18 15  1  0
 23 19  1  0
 11  6  1  0
M  END
>  <cnnaffinity>  (68) 
-6.13619

>  <cnnaffinityIC50>  (68) 
730.8192865513232 nanomolar

>  <smiles>  (68) 
O=C(NC1=CC2=CC=CC=C2N=C1Br)[C@@H]1CC[C@@H]1C1=NNC=N1 Z5361339904

>  <ref_pdb>  (68) 
Ax0310a

>  <ref_mols>  (68) 
Ax1097a,Ax0310a

>  <rationale>  (68) 
Enamine real space elaborations around a merge of x1097 and x0310.

$$$$
Z2673144408
     RDKit          3D

 22 24  0  0  0  0  0  0  0  0999 V2000
   10.8819   14.8319   18.9848 C   0  0  0  0  0  0  0  0  0  0  0  0
   12.2983   14.3289   19.9819 S   0  0  0  0  0  6  0  0  0  0  0  0
   13.3485   15.3304   19.8538 O   0  0  0  0  0  0  0  0  0  0  0  0
   12.8364   13.0507   19.5168 O   0  0  0  0  0  0  0  0  0  0  0  0
   11.8234   14.2869   21.7027 C   0  0  0  0  0  0  0  0  0  0  0  0
   10.6138   13.4347   21.5898 C   0  0  0  0  0  0  0  0  0  0  0  0
    9.5832   13.9630   21.2224 O   0  0  0  0  0  0  0  0  0  0  0  0
   10.6232   12.1677   22.1295 N   0  0  0  0  0  0  0  0  0  0  0  0
    9.6458   11.7500   23.0603 C   0  0  0  0  0  0  0  0  0  0  0  0
    8.9544   12.7497   23.7441 C   0  0  0  0  0  0  0  0  0  0  0  0
    8.0669   12.3974   24.7546 C   0  0  0  0  0  0  0  0  0  0  0  0
    7.4077   13.3817   25.5043 C   0  0  0  0  0  0  0  0  0  0  0  0
    6.5426   13.0063   26.5369 C   0  0  0  0  0  0  0  0  0  0  0  0
    6.3301   11.6527   26.8195 C   0  0  0  0  0  0  0  0  0  0  0  0
    6.9892   10.6730   26.0635 C   0  0  0  0  0  0  0  0  0  0  0  0
    7.8638   11.0279   25.0355 C   0  0  0  0  0  0  0  0  0  0  0  0
    8.4926   10.0511   24.3595 N   0  0  0  0  0  0  0  0  0  0  0  0
    9.3717   10.3959   23.3963 C   0  0  0  0  0  0  0  0  0  0  0  0
   10.2640    8.9848   22.4697 Br  0  0  0  0  0  0  0  0  0  0  0  0
   11.7005   15.6559   22.4031 C   0  0  0  0  0  0  0  0  0  0  0  0
   12.9884   15.3657   23.1467 C   0  0  0  0  0  0  0  0  0  0  0  0
   12.9129   13.9120   22.7170 C   0  0  0  0  0  0  0  0  0  0  0  0
  1  2  1  0
  2  3  2  0
  2  4  2  0
  2  5  1  0
  5  6  1  0
  6  7  2  0
  6  8  1  0
  8  9  1  0
  9 10  2  0
 10 11  1  0
 11 12  2  0
 12 13  1  0
 13 14  2  0
 14 15  1  0
 15 16  2  0
 16 17  1  0
 17 18  2  0
 18 19  1  0
  5 20  1  0
 20 21  1  0
 21 22  1  0
 22  5  1  0
 18  9  1  0
 16 11  1  0
M  END
>  <cnnaffinity>  (69) 
-6.12865

>  <cnnaffinityIC50>  (69) 
743.6181819272585 nanomolar

>  <smiles>  (69) 
CS(=O)(=O)C1(C(=O)NC2=CC3=CC=CC=C3N=C2Br)CCC1 Z2673144408

>  <ref_pdb>  (69) 
Ax0310a

>  <ref_mols>  (69) 
Ax1097a,Ax0310a

>  <rationale>  (69) 
Enamine real space elaborations around a merge of x1097 and x0310.

$$$$
Z4377310626
     RDKit          3D

 23 25  0  0  0  0  0  0  0  0999 V2000
    9.4115   16.3523   18.5771 O   0  0  0  0  0  0  0  0  0  0  0  0
   10.3903   15.8512   19.1201 C   0  0  0  0  0  0  0  0  0  0  0  0
   11.2966   14.8155   18.4938 C   0  0  0  0  0  0  0  0  0  0  0  0
   12.4560   14.6757   19.4839 C   0  0  0  0  0  0  0  0  0  0  0  0
   11.9759   15.2407   20.8324 C   0  0  2  0  0  0  0  0  0  0  0  0
   11.4108   14.1415   21.7259 C   0  0  0  0  0  0  0  0  0  0  0  0
   12.4544   13.4241   22.5883 C   0  0  0  0  0  0  0  0  0  0  0  0
   11.6702   12.7077   23.6766 C   0  0  0  0  0  0  0  0  0  0  0  0
   11.5606   13.2555   24.7609 O   0  0  0  0  0  0  0  0  0  0  0  0
   10.8471   11.6369   23.3462 N   0  0  0  0  0  0  0  0  0  0  0  0
    9.6768   11.2673   24.0666 C   0  0  0  0  0  0  0  0  0  0  0  0
    9.0526   12.2517   24.8339 C   0  0  0  0  0  0  0  0  0  0  0  0
    7.8800   11.9512   25.5238 C   0  0  0  0  0  0  0  0  0  0  0  0
    7.2276   12.9328   26.2863 C   0  0  0  0  0  0  0  0  0  0  0  0
    6.0502   12.6091   26.9693 C   0  0  0  0  0  0  0  0  0  0  0  0
    5.5236   11.3170   26.8979 C   0  0  0  0  0  0  0  0  0  0  0  0
    3.9359   10.8736   27.8643 Br  0  0  0  0  0  0  0  0  0  0  0  0
    6.1726   10.3508   26.1222 C   0  0  0  0  0  0  0  0  0  0  0  0
    7.3510   10.6457   25.4353 C   0  0  0  0  0  0  0  0  0  0  0  0
    7.9421    9.6781   24.7121 N   0  0  0  0  0  0  0  0  0  0  0  0
    9.0746    9.9769   24.0371 C   0  0  0  0  0  0  0  0  0  0  0  0
    9.8160    8.7074   23.0963 Cl  0  0  0  0  0  0  0  0  0  0  0  0
   10.8258   16.2003   20.5220 C   0  0  0  0  0  0  0  0  0  0  0  0
  1  2  2  0
  2  3  1  0
  3  4  1  0
  4  5  1  0
  5  6  1  1
  6  7  1  0
  7  8  1  0
  8  9  2  0
  8 10  1  0
 10 11  1  0
 11 12  2  0
 12 13  1  0
 13 14  2  0
 14 15  1  0
 15 16  2  0
 16 17  1  0
 16 18  1  0
 18 19  2  0
 19 20  1  0
 20 21  2  0
 21 22  1  0
  5 23  1  0
 23  2  1  0
 21 11  1  0
 19 13  1  0
M  END
>  <cnnaffinity>  (70) 
-6.09631

>  <cnnaffinityIC50>  (70) 
801.1060286645322 nanomolar

>  <smiles>  (70) 
O=C1CCC(CCC(=O)NC2=CC3=CC=C(Br)C=C3N=C2Cl)C1 Z4377310626

>  <ref_pdb>  (70) 
Ax0310a

>  <ref_mols>  (70) 
Ax1097a,Ax0310a

>  <rationale>  (70) 
Enamine real space elaborations around a merge of x1097 and x0310.

$$$$
PV-005653042228
     RDKit          3D

 21 23  0  0  0  0  0  0  0  0999 V2000
   11.6883   13.8923   24.7933 O   0  0  0  0  0  0  0  0  0  0  0  0
   11.7425   13.5089   23.6415 C   0  0  0  0  0  0  0  0  0  0  0  0
   12.7313   14.1024   22.6401 C   0  0  0  0  0  0  0  0  0  0  0  0
   12.0939   14.4668   21.3916 N   0  0  0  0  0  0  0  0  0  0  0  0
   11.1091   15.3818   21.2548 C   0  0  0  0  0  0  0  0  0  0  0  0
   10.7466   15.3540   19.9294 C   0  0  0  0  0  0  0  0  0  0  0  0
    9.5596   16.3449   19.1764 Cl  0  0  0  0  0  0  0  0  0  0  0  0
   11.5791   14.3822   19.3365 C   0  0  0  0  0  0  0  0  0  0  0  0
   12.3974   13.8622   20.2376 N   0  0  0  0  0  0  0  0  0  0  0  0
   10.9286   12.5228   23.1440 N   0  0  0  0  0  0  0  0  0  0  0  0
    9.8195   12.0716   23.8699 C   0  0  0  0  0  0  0  0  0  0  0  0
    9.0729   12.9418   24.6159 C   0  0  0  0  0  0  0  0  0  0  0  0
    7.9853   12.4676   25.3724 C   0  0  0  0  0  0  0  0  0  0  0  0
    7.2050   13.3304   26.1830 C   0  0  0  0  0  0  0  0  0  0  0  0
    6.1798   12.8212   26.9330 C   0  0  0  0  0  0  0  0  0  0  0  0
    5.8954   11.4323   26.8980 C   0  0  0  0  0  0  0  0  0  0  0  0
    6.6288   10.5847   26.1057 C   0  0  0  0  0  0  0  0  0  0  0  0
    7.6999   11.0870   25.3260 C   0  0  0  0  0  0  0  0  0  0  0  0
    8.4270   10.2266   24.5478 N   0  0  0  0  0  0  0  0  0  0  0  0
    9.4104   10.7041   23.8587 C   0  0  0  0  0  0  0  0  0  0  0  0
   10.2833    9.5896   22.8419 Cl  0  0  0  0  0  0  0  0  0  0  0  0
  1  2  2  0
  2  3  1  0
  3  4  1  0
  4  5  1  0
  5  6  2  0
  6  7  1  0
  6  8  1  0
  8  9  2  0
  2 10  1  0
 10 11  1  0
 11 12  2  0
 12 13  1  0
 13 14  2  0
 14 15  1  0
 15 16  2  0
 16 17  1  0
 17 18  2  0
 18 19  1  0
 19 20  2  0
 20 21  1  0
  9  4  1  0
 20 11  1  0
 18 13  1  0
M  END
>  <cnnaffinity>  (71) 
-6.07597

>  <cnnaffinityIC50>  (71) 
839.5179763638066 nanomolar

>  <smiles>  (71) 
O=C(CN1C=C(Cl)C=N1)NC1=CC2=CC=CC=C2N=C1Cl PV-005653042228

>  <ref_pdb>  (71) 
Ax0310a

>  <ref_mols>  (71) 
Ax1097a,Ax0310a

>  <rationale>  (71) 
Enamine real space elaborations around a merge of x1097 and x0310.

$$$$
Z4048899221
     RDKit          3D

 22 25  0  0  0  0  0  0  0  0999 V2000
   12.8768   13.4589   19.3920 N   0  0  0  0  0  0  0  0  0  0  0  0
   12.5165   13.4852   20.4912 C   0  0  0  0  0  0  0  0  0  0  0  0
   11.9922   13.6483   21.8233 C   0  0  1  0  0  0  0  0  0  0  0  0
   10.5755   13.1580   22.0492 C   0  0  0  0  0  0  0  0  0  0  0  0
    9.5988   13.7992   21.7223 O   0  0  0  0  0  0  0  0  0  0  0  0
   10.4777   11.9427   22.6981 N   0  0  0  0  0  0  0  0  0  0  0  0
    9.4211   11.6308   23.5674 C   0  0  0  0  0  0  0  0  0  0  0  0
    8.7089   12.6055   24.2158 C   0  0  0  0  0  0  0  0  0  0  0  0
    7.7523   12.2535   25.1885 C   0  0  0  0  0  0  0  0  0  0  0  0
    7.0616   13.2303   25.9518 C   0  0  0  0  0  0  0  0  0  0  0  0
    6.1654   12.8481   26.9142 C   0  0  0  0  0  0  0  0  0  0  0  0
    5.9147   11.4711   27.1386 C   0  0  0  0  0  0  0  0  0  0  0  0
    6.5625   10.5118   26.4048 C   0  0  0  0  0  0  0  0  0  0  0  0
    7.5079   10.8832   25.4160 C   0  0  0  0  0  0  0  0  0  0  0  0
    8.1725    9.9083   24.7171 N   0  0  0  0  0  0  0  0  0  0  0  0
    9.0730   10.2735   23.8679 C   0  0  0  0  0  0  0  0  0  0  0  0
    9.9148    9.0104   23.0050 Cl  0  0  0  0  0  0  0  0  0  0  0  0
   12.8838   13.7753   23.0562 C   0  0  0  0  0  0  0  0  0  0  0  0
   12.3670   14.9933   22.3799 C   0  0  0  0  0  0  0  0  0  0  0  0
   11.3767   16.0207   22.8439 C   0  0  0  0  0  0  0  0  0  0  0  0
   12.2433   17.0948   22.1618 C   0  0  0  0  0  0  0  0  0  0  0  0
   13.1953   16.0105   21.6259 C   0  0  0  0  0  0  0  0  0  0  0  0
  1  2  3  0
  3  2  1  6
  3  4  1  0
  4  5  2  0
  4  6  1  0
  6  7  1  0
  7  8  2  0
  8  9  1  0
  9 10  2  0
 10 11  1  0
 11 12  2  0
 12 13  1  0
 13 14  2  0
 14 15  1  0
 15 16  2  0
 16 17  1  0
  3 18  1  0
 18 19  1  0
 19 20  1  0
 20 21  1  0
 21 22  1  0
 19  3  1  0
 16  7  1  0
 22 19  1  0
 14  9  1  0
M  END
>  <cnnaffinity>  (72) 
-6.06683

>  <cnnaffinityIC50>  (72) 
857.3733893350019 nanomolar

>  <smiles>  (72) 
N#CC1(C(=O)NC2=CC3=CC=CC=C3N=C2Cl)CC12CCC2 Z4048899221

>  <ref_pdb>  (72) 
Ax0310a

>  <ref_mols>  (72) 
Ax1097a,Ax0310a

>  <rationale>  (72) 
Enamine real space elaborations around a merge of x1097 and x0310.

$$$$
Z4666025435
     RDKit          3D

 23 26  0  0  0  0  0  0  0  0999 V2000
    9.4317   14.2736   22.0161 O   0  0  0  0  0  0  0  0  0  0  0  0
   10.5457   13.7606   21.9904 C   0  0  0  0  0  0  0  0  0  0  0  0
   10.7070   12.5136   22.5866 N   0  0  0  0  0  0  0  0  0  0  0  0
    9.7903   11.9669   23.5294 C   0  0  0  0  0  0  0  0  0  0  0  0
    9.0241   12.8824   24.2556 C   0  0  0  0  0  0  0  0  0  0  0  0
    8.0873   12.4299   25.1788 C   0  0  0  0  0  0  0  0  0  0  0  0
    7.3085   13.3430   25.9037 C   0  0  0  0  0  0  0  0  0  0  0  0
    6.3084   12.8740   26.7599 C   0  0  0  0  0  0  0  0  0  0  0  0
    6.1025   11.5014   26.9156 C   0  0  0  0  0  0  0  0  0  0  0  0
    6.9260   10.5967   26.2319 C   0  0  0  0  0  0  0  0  0  0  0  0
    7.9191   11.0408   25.3543 C   0  0  0  0  0  0  0  0  0  0  0  0
    8.6650   10.1378   24.6936 N   0  0  0  0  0  0  0  0  0  0  0  0
    9.5876   10.5787   23.8081 C   0  0  0  0  0  0  0  0  0  0  0  0
   10.5706    9.2346   22.8645 Br  0  0  0  0  0  0  0  0  0  0  0  0
   11.7660   14.5790   21.4945 C   0  0  1  0  0  0  0  0  0  0  0  0
   12.3948   14.0901   20.1712 C   0  0  0  0  0  0  0  0  0  0  0  0
   11.4356   14.2101   18.9727 C   0  0  0  0  0  0  0  0  0  0  0  0
   10.5464   15.3627   19.0610 N   0  0  0  0  0  0  0  0  0  0  0  0
    9.5164   15.6594   18.2073 C   0  0  0  0  0  0  0  0  0  0  0  0
    8.9004   16.7283   18.6329 N   0  0  0  0  0  0  0  0  0  0  0  0
    9.4963   17.0812   19.8154 N   0  0  0  0  0  0  0  0  0  0  0  0
   10.4568   16.2359   20.1069 C   0  0  0  0  0  0  0  0  0  0  0  0
   11.4096   16.0725   21.2768 C   0  0  0  0  0  0  0  0  0  0  0  0
  1  2  2  0
  2  3  1  0
  3  4  1  0
  4  5  2  0
  5  6  1  0
  6  7  2  0
  7  8  1  0
  8  9  2  0
  9 10  1  0
 10 11  2  0
 11 12  1  0
 12 13  2  0
 13 14  1  0
 15  2  1  6
 15 16  1  0
 16 17  1  0
 17 18  1  0
 18 19  1  0
 19 20  2  0
 20 21  1  0
 21 22  2  0
 22 23  1  0
 13  4  1  0
 23 15  1  0
 11  6  1  0
 22 18  1  0
M  END
>  <cnnaffinity>  (73) 
-6.06033

>  <cnnaffinityIC50>  (73) 
870.3020369624551 nanomolar

>  <smiles>  (73) 
O=C(NC1=CC2=CC=CC=C2N=C1Br)C1CCN2C=NN=C2C1 Z4666025435

>  <ref_pdb>  (73) 
Ax0310a

>  <ref_mols>  (73) 
Ax1097a,Ax0310a

>  <rationale>  (73) 
Enamine real space elaborations around a merge of x1097 and x0310.

$$$$
Z4383247654
     RDKit          3D

 23 26  0  0  0  0  0  0  0  0999 V2000
    9.9142   13.9628   22.4926 O   0  0  0  0  0  0  0  0  0  0  0  0
   10.8586   13.1865   22.3686 C   0  0  0  0  0  0  0  0  0  0  0  0
   10.7880   11.9519   23.0151 N   0  0  0  0  0  0  0  0  0  0  0  0
    9.7244   11.5580   23.8706 C   0  0  0  0  0  0  0  0  0  0  0  0
    9.0181   12.5594   24.5423 C   0  0  0  0  0  0  0  0  0  0  0  0
    7.9651   12.2134   25.3877 C   0  0  0  0  0  0  0  0  0  0  0  0
    7.2568   13.1960   26.0992 C   0  0  0  0  0  0  0  0  0  0  0  0
    6.1958   12.8253   26.9323 C   0  0  0  0  0  0  0  0  0  0  0  0
    5.8232   11.4833   27.0448 C   0  0  0  0  0  0  0  0  0  0  0  0
    6.5376   10.5092   26.3366 C   0  0  0  0  0  0  0  0  0  0  0  0
    7.6188   10.8508   25.5209 C   0  0  0  0  0  0  0  0  0  0  0  0
    8.2917    9.8715   24.8922 N   0  0  0  0  0  0  0  0  0  0  0  0
    9.3306   10.2086   24.0968 C   0  0  0  0  0  0  0  0  0  0  0  0
   10.2463    8.7886   23.1992 Br  0  0  0  0  0  0  0  0  0  0  0  0
   12.1143   13.6153   21.5602 C   0  0  2  0  0  0  0  0  0  0  0  0
   12.9800   14.5290   22.4579 C   0  0  0  0  0  0  0  0  0  0  0  0
   12.2281   15.8452   22.7269 C   0  0  0  0  0  0  0  0  0  0  0  0
   12.0560   16.5896   21.3985 C   0  0  0  0  0  0  0  0  0  0  0  0
   11.4072   15.7093   20.3659 C   0  0  0  0  0  0  0  0  0  0  0  0
   10.6445   15.9843   19.3334 N   0  0  0  0  0  0  0  0  0  0  0  0
   10.6996   14.9116   18.4858 N   0  0  0  0  0  0  0  0  0  0  0  0
   11.4420   13.9975   19.0532 C   0  0  0  0  0  0  0  0  0  0  0  0
   11.7701   14.3944   20.3325 N   0  0  0  0  0  0  0  0  0  0  0  0
  1  2  2  0
  2  3  1  0
  3  4  1  0
  4  5  2  0
  5  6  1  0
  6  7  2  0
  7  8  1  0
  8  9  2  0
  9 10  1  0
 10 11  2  0
 11 12  1  0
 12 13  2  0
 13 14  1  0
 15  2  1  1
 15 16  1  0
 16 17  1  0
 17 18  1  0
 18 19  1  0
 19 20  2  0
 20 21  1  0
 21 22  2  0
 22 23  1  0
 13  4  1  0
 23 15  1  0
 11  6  1  0
 23 19  1  0
M  END
>  <cnnaffinity>  (74) 
-6.0532

>  <cnnaffinityIC50>  (74) 
884.70809287053 nanomolar

>  <smiles>  (74) 
O=C(NC1=CC2=CC=CC=C2N=C1Br)C1CCCC2=NN=CN21 Z4383247654

>  <ref_pdb>  (74) 
Ax0310a

>  <ref_mols>  (74) 
Ax1097a,Ax0310a

>  <rationale>  (74) 
Enamine real space elaborations around a merge of x1097 and x0310.

$$$$
Z3714463543
     RDKit          3D

 23 25  0  0  0  0  0  0  0  0999 V2000
    5.2780   13.7662   27.9213 C   0  0  0  0  0  0  0  0  0  0  0  0
    6.0759   12.7797   27.1038 C   0  0  0  0  0  0  0  0  0  0  0  0
    7.1413   13.1873   26.3397 C   0  0  0  0  0  0  0  0  0  0  0  0
    7.9028   12.2648   25.5770 C   0  0  0  0  0  0  0  0  0  0  0  0
    8.9526   12.6885   24.7385 C   0  0  0  0  0  0  0  0  0  0  0  0
    9.6478   11.7525   24.0180 C   0  0  0  0  0  0  0  0  0  0  0  0
   10.6770   12.1016   23.1259 N   0  0  0  0  0  0  0  0  0  0  0  0
   10.7620   13.3376   22.5244 C   0  0  0  0  0  0  0  0  0  0  0  0
    9.8388   14.1232   22.5686 O   0  0  0  0  0  0  0  0  0  0  0  0
   12.1126   13.6812   21.9084 C   0  0  1  0  0  0  0  0  0  0  0  0
   11.9242   14.1712   20.5017 C   0  0  0  0  0  0  0  0  0  0  0  0
   10.7419   14.2713   19.9149 N   0  0  0  0  0  0  0  0  0  0  0  0
   11.0791   14.7418   18.6971 N   0  0  0  0  0  0  0  0  0  0  0  0
   12.4072   14.9226   18.6100 C   0  0  0  0  0  0  0  0  0  0  0  0
   12.9812   14.5818   19.7452 N   0  0  0  0  0  0  0  0  0  0  0  0
   12.8411   14.7512   22.7614 C   0  0  0  0  0  0  0  0  0  0  0  0
   12.0321   16.0452   22.8157 C   0  0  0  0  0  0  0  0  0  0  0  0
   13.1210   14.2166   24.1617 C   0  0  0  0  0  0  0  0  0  0  0  0
    9.3304   10.3766   24.2071 C   0  0  0  0  0  0  0  0  0  0  0  0
    8.3403    9.9545   24.9497 N   0  0  0  0  0  0  0  0  0  0  0  0
    7.5957   10.8884   25.6220 C   0  0  0  0  0  0  0  0  0  0  0  0
    6.4742   10.4830   26.3901 C   0  0  0  0  0  0  0  0  0  0  0  0
    5.7395   11.3974   27.0981 C   0  0  0  0  0  0  0  0  0  0  0  0
  1  2  1  0
  2  3  2  0
  3  4  1  0
  4  5  2  0
  5  6  1  0
  6  7  1  0
  7  8  1  0
  8  9  2  0
  8 10  1  0
 10 11  1  0
 11 12  2  0
 12 13  1  0
 13 14  1  0
 14 15  2  0
 10 16  1  1
 16 17  1  0
 16 18  1  0
  6 19  2  0
 19 20  1  0
 20 21  2  0
 21 22  1  0
 22 23  2  0
 23  2  1  0
 21  4  1  0
 15 11  1  0
M  END
>  <cnnaffinity>  (75) 
-6.05234

>  <cnnaffinityIC50>  (75) 
886.4617480848485 nanomolar

>  <smiles>  (75) 
CC1=CC2=CC(NC(=O)C(C3=NNC=N3)C(C)C)=CN=C2C=C1 Z3714463543

>  <ref_pdb>  (75) 
Ax0310a

>  <ref_mols>  (75) 
Ax1097a,Ax0310a

>  <rationale>  (75) 
Enamine real space elaborations around a merge of x1097 and x0310.

$$$$
Z3358472738
     RDKit          3D

 23 26  0  0  0  0  0  0  0  0999 V2000
    9.7628   13.4238   21.7185 O   0  0  0  0  0  0  0  0  0  0  0  0
   10.7775   13.0361   22.2590 C   0  0  0  0  0  0  0  0  0  0  0  0
   12.1512   13.6294   21.9283 C   0  0  0  0  0  0  0  0  0  0  0  0
   12.9502   13.9434   23.1564 C   0  0  0  0  0  0  0  0  0  0  0  0
   12.8237   15.0753   23.8207 N   0  0  0  0  0  0  0  0  0  0  0  0
   13.6397   14.8652   24.8841 N   0  0  0  0  0  0  0  0  0  0  0  0
   14.2297   13.6571   24.8065 C   0  0  0  0  0  0  0  0  0  0  0  0
   15.1968   13.1615   25.8095 C   0  0  0  0  0  0  0  0  0  0  0  0
   16.6655   13.5179   25.7323 C   0  0  0  0  0  0  0  0  0  0  0  0
   16.1995   12.1445   25.3638 C   0  0  0  0  0  0  0  0  0  0  0  0
   13.7758   13.0269   23.7282 N   0  0  0  0  0  0  0  0  0  0  0  0
   10.7657   12.0259   23.2009 N   0  0  0  0  0  0  0  0  0  0  0  0
    9.5784   11.7952   23.9554 C   0  0  0  0  0  0  0  0  0  0  0  0
    9.0272   10.4872   24.0566 C   0  0  0  0  0  0  0  0  0  0  0  0
    7.9462   10.2056   24.7404 N   0  0  0  0  0  0  0  0  0  0  0  0
    7.3455   11.2124   25.4369 C   0  0  0  0  0  0  0  0  0  0  0  0
    6.1619   10.9623   26.1887 C   0  0  0  0  0  0  0  0  0  0  0  0
    5.6158    9.7438   26.1181 F   0  0  0  0  0  0  0  0  0  0  0  0
    5.5845   11.9190   26.9768 C   0  0  0  0  0  0  0  0  0  0  0  0
    6.1705   13.2055   27.0500 C   0  0  0  0  0  0  0  0  0  0  0  0
    7.2772   13.5092   26.3070 C   0  0  0  0  0  0  0  0  0  0  0  0
    7.8594   12.5300   25.4627 C   0  0  0  0  0  0  0  0  0  0  0  0
    8.9677   12.8114   24.6342 C   0  0  0  0  0  0  0  0  0  0  0  0
  1  2  2  0
  2  3  1  0
  3  4  1  0
  4  5  2  0
  5  6  1  0
  6  7  1  0
  7  8  1  0
  8  9  1  0
  9 10  1  0
  7 11  2  0
  2 12  1  0
 12 13  1  0
 13 14  2  0
 14 15  1  0
 15 16  2  0
 16 17  1  0
 17 18  1  0
 17 19  2  0
 19 20  1  0
 20 21  2  0
 21 22  1  0
 22 23  2  0
 11  4  1  0
 23 13  1  0
 10  8  1  0
 22 16  1  0
M  END
>  <cnnaffinity>  (76) 
-6.0441

>  <cnnaffinityIC50>  (76) 
903.4414246950012 nanomolar

>  <smiles>  (76) 
O=C(CC1=NNC(C2CC2)=N1)NC1=CN=C2C(F)=CC=CC2=C1 Z3358472738

>  <ref_pdb>  (76) 
Ax0310a

>  <ref_mols>  (76) 
Ax1097a,Ax0310a

>  <rationale>  (76) 
Enamine real space elaborations around a merge of x1097 and x0310.

$$$$
Z2673144643
     RDKit          3D

 23 25  0  0  0  0  0  0  0  0999 V2000
   11.6915   16.8974   23.5310 N   0  0  0  0  0  0  0  0  0  0  0  0
   11.8265   16.0554   22.7353 C   0  0  0  0  0  0  0  0  0  0  0  0
   11.9601   14.9768   21.7284 C   0  0  0  0  0  0  0  0  0  0  0  0
   12.5624   13.7071   22.3581 C   0  0  0  0  0  0  0  0  0  0  0  0
   11.6421   13.1431   23.4270 C   0  0  0  0  0  0  0  0  0  0  0  0
   11.5084   13.7481   24.4806 O   0  0  0  0  0  0  0  0  0  0  0  0
   10.8522   12.0465   23.1222 N   0  0  0  0  0  0  0  0  0  0  0  0
    9.7661   11.6163   23.9157 C   0  0  0  0  0  0  0  0  0  0  0  0
    9.0980   12.5891   24.6593 C   0  0  0  0  0  0  0  0  0  0  0  0
    8.0101   12.2254   25.4476 C   0  0  0  0  0  0  0  0  0  0  0  0
    7.2940   13.1815   26.1815 C   0  0  0  0  0  0  0  0  0  0  0  0
    6.2038   12.7924   26.9661 C   0  0  0  0  0  0  0  0  0  0  0  0
    5.8294   11.4474   27.0273 C   0  0  0  0  0  0  0  0  0  0  0  0
    6.5408   10.4958   26.2879 C   0  0  0  0  0  0  0  0  0  0  0  0
    7.6271   10.8674   25.4906 C   0  0  0  0  0  0  0  0  0  0  0  0
    8.2636    9.9189   24.7828 N   0  0  0  0  0  0  0  0  0  0  0  0
    9.3068   10.2730   24.0032 C   0  0  0  0  0  0  0  0  0  0  0  0
   10.1815    8.8882   23.0097 Br  0  0  0  0  0  0  0  0  0  0  0  0
   10.5586   14.6201   21.1684 C   0  0  0  0  0  0  0  0  0  0  0  0
   10.2092   15.4976   19.9691 C   0  0  0  0  0  0  0  0  0  0  0  0
   11.1432   15.1455   18.7986 C   0  0  0  0  0  0  0  0  0  0  0  0
   12.5729   14.7918   19.2602 C   0  0  0  0  0  0  0  0  0  0  0  0
   12.9176   15.4524   20.6083 C   0  0  0  0  0  0  0  0  0  0  0  0
  1  2  3  0
  2  3  1  0
  3  4  1  0
  4  5  1  0
  5  6  2  0
  5  7  1  0
  7  8  1  0
  8  9  2  0
  9 10  1  0
 10 11  2  0
 11 12  1  0
 12 13  2  0
 13 14  1  0
 14 15  2  0
 15 16  1  0
 16 17  2  0
 17 18  1  0
  3 19  1  0
 19 20  1  0
 20 21  1  0
 21 22  1  0
 22 23  1  0
 23  3  1  0
 17  8  1  0
 15 10  1  0
M  END
>  <cnnaffinity>  (77) 
-6.03949

>  <cnnaffinityIC50>  (77) 
913.0824595517249 nanomolar

>  <smiles>  (77) 
N#CC1(CC(=O)NC2=CC3=CC=CC=C3N=C2Br)CCCCC1 Z2673144643

>  <ref_pdb>  (77) 
Ax0310a

>  <ref_mols>  (77) 
Ax1097a,Ax0310a

>  <rationale>  (77) 
Enamine real space elaborations around a merge of x1097 and x0310.

$$$$
Z4048901005
     RDKit          3D

 23 25  0  0  0  0  0  0  0  0999 V2000
   13.5498   15.4017   21.7274 C   0  0  0  0  0  0  0  0  0  0  0  0
   12.3871   15.0755   22.6514 C   0  0  0  0  0  0  0  0  0  0  0  0
   11.0464   15.1674   21.9119 C   0  0  0  0  0  0  0  0  0  0  0  0
   12.5464   13.6546   23.2078 C   0  0  2  0  0  0  0  0  0  0  0  0
   11.3529   13.3427   24.1026 C   0  0  0  0  0  0  0  0  0  0  0  0
   11.0829   14.0273   25.0697 O   0  0  0  0  0  0  0  0  0  0  0  0
   10.5938   12.2735   23.6882 N   0  0  0  0  0  0  0  0  0  0  0  0
    9.4244   11.8662   24.3302 C   0  0  0  0  0  0  0  0  0  0  0  0
    8.6156   12.7543   24.9901 C   0  0  0  0  0  0  0  0  0  0  0  0
    7.4726   12.2860   25.6650 C   0  0  0  0  0  0  0  0  0  0  0  0
    6.6377   13.1542   26.4126 C   0  0  0  0  0  0  0  0  0  0  0  0
    5.5378   12.6615   27.0643 C   0  0  0  0  0  0  0  0  0  0  0  0
    5.2288   11.2813   26.9843 C   0  0  0  0  0  0  0  0  0  0  0  0
    6.0276   10.4225   26.2766 C   0  0  0  0  0  0  0  0  0  0  0  0
    7.1754   10.9085   25.6044 C   0  0  0  0  0  0  0  0  0  0  0  0
    7.9689   10.0294   24.9158 N   0  0  0  0  0  0  0  0  0  0  0  0
    9.0149   10.4922   24.3221 C   0  0  0  0  0  0  0  0  0  0  0  0
    9.9962    9.3523   23.4229 Cl  0  0  0  0  0  0  0  0  0  0  0  0
   13.7700   13.3679   23.9572 N   0  0  0  0  0  0  0  0  0  0  0  0
   14.4684   14.0936   24.8486 C   0  0  0  0  0  0  0  0  0  0  0  0
   15.4302   13.3749   25.3908 N   0  0  0  0  0  0  0  0  0  0  0  0
   15.2616   12.1691   24.7809 C   0  0  0  0  0  0  0  0  0  0  0  0
   14.2597   12.1073   23.9313 N   0  0  0  0  0  0  0  0  0  0  0  0
  1  2  1  0
  2  3  1  0
  4  2  1  1
  4  5  1  0
  5  6  2  0
  5  7  1  0
  7  8  1  0
  8  9  2  0
  9 10  1  0
 10 11  2  0
 11 12  1  0
 12 13  2  0
 13 14  1  0
 14 15  2  0
 15 16  1  0
 16 17  2  0
 17 18  1  0
  4 19  1  0
 19 20  1  0
 20 21  2  0
 21 22  1  0
 22 23  2  0
 17  8  1  0
 23 19  1  0
 15 10  1  0
M  END
>  <cnnaffinity>  (78) 
-6.03719

>  <cnnaffinityIC50>  (78) 
917.9309219545733 nanomolar

>  <smiles>  (78) 
CC(C)C(C(=O)NC1=CC2=CC=CC=C2N=C1Cl)N1C=NC=N1 Z4048901005

>  <ref_pdb>  (78) 
Ax0310a

>  <ref_mols>  (78) 
Ax1097a,Ax0310a

>  <rationale>  (78) 
Enamine real space elaborations around a merge of x1097 and x0310.

$$$$
Z3867944408
     RDKit          3D

 23 26  0  0  0  0  0  0  0  0999 V2000
    9.5115   13.8330   21.5151 O   0  0  0  0  0  0  0  0  0  0  0  0
   10.6529   13.4143   21.6913 C   0  0  0  0  0  0  0  0  0  0  0  0
   10.8518   12.2568   22.4340 N   0  0  0  0  0  0  0  0  0  0  0  0
    9.9270   11.8096   23.4032 C   0  0  0  0  0  0  0  0  0  0  0  0
    9.1494   12.7769   24.0382 C   0  0  0  0  0  0  0  0  0  0  0  0
    8.2207   12.3833   24.9953 C   0  0  0  0  0  0  0  0  0  0  0  0
    7.4272   13.3378   25.6472 C   0  0  0  0  0  0  0  0  0  0  0  0
    6.4379   12.9322   26.5472 C   0  0  0  0  0  0  0  0  0  0  0  0
    5.3007   14.2277   27.3749 Br  0  0  0  0  0  0  0  0  0  0  0  0
    6.2683   11.5702   26.8194 C   0  0  0  0  0  0  0  0  0  0  0  0
    7.0963   10.6189   26.2041 C   0  0  0  0  0  0  0  0  0  0  0  0
    8.0752   11.0091   25.2878 C   0  0  0  0  0  0  0  0  0  0  0  0
    8.8322   10.0640   24.6995 N   0  0  0  0  0  0  0  0  0  0  0  0
    9.7431   10.4571   23.7836 C   0  0  0  0  0  0  0  0  0  0  0  0
   11.8633   14.3157   21.3469 C   0  0  1  0  0  0  0  0  0  0  0  0
   12.5579   13.9404   20.0160 C   0  0  0  0  0  0  0  0  0  0  0  0
   11.7091   14.2161   18.7561 C   0  0  0  0  0  0  0  0  0  0  0  0
   10.7532   15.3195   18.9334 N   0  0  0  0  0  0  0  0  0  0  0  0
    9.8595   15.7440   18.0206 N   0  0  0  0  0  0  0  0  0  0  0  0
    9.2560   16.7514   18.5343 N   0  0  0  0  0  0  0  0  0  0  0  0
    9.7007   16.9777   19.8026 N   0  0  0  0  0  0  0  0  0  0  0  0
   10.6069   16.0807   20.0610 C   0  0  0  0  0  0  0  0  0  0  0  0
   11.4627   15.8175   21.2789 C   0  0  0  0  0  0  0  0  0  0  0  0
  1  2  2  0
  2  3  1  0
  3  4  1  0
  4  5  2  0
  5  6  1  0
  6  7  2  0
  7  8  1  0
  8  9  1  0
  8 10  2  0
 10 11  1  0
 11 12  2  0
 12 13  1  0
 13 14  2  0
 15  2  1  6
 15 16  1  0
 16 17  1  0
 17 18  1  0
 18 19  1  0
 19 20  2  0
 20 21  1  0
 21 22  2  0
 22 23  1  0
 14  4  1  0
 23 15  1  0
 12  6  1  0
 22 18  1  0
M  END
>  <cnnaffinity>  (79) 
-6.03033

>  <cnnaffinityIC50>  (79) 
932.5454339928841 nanomolar

>  <smiles>  (79) 
O=C(NC1=CC2=CC(Br)=CC=C2N=C1)C1CCN2N=NN=C2C1 Z3867944408

>  <ref_pdb>  (79) 
Ax0310a

>  <ref_mols>  (79) 
Ax1097a,Ax0310a

>  <rationale>  (79) 
Enamine real space elaborations around a merge of x1097 and x0310.

$$$$
Z5361503334
     RDKit          3D

 23 26  0  0  0  0  0  0  0  0999 V2000
   11.7627   13.6728   24.5991 O   0  0  0  0  0  0  0  0  0  0  0  0
   11.7316   13.1797   23.4876 C   0  0  0  0  0  0  0  0  0  0  0  0
   10.9353   12.1034   23.1816 N   0  0  0  0  0  0  0  0  0  0  0  0
    9.8162   11.7757   23.9467 C   0  0  0  0  0  0  0  0  0  0  0  0
    9.1643   12.7012   24.7264 C   0  0  0  0  0  0  0  0  0  0  0  0
    8.0135   12.3180   25.4487 C   0  0  0  0  0  0  0  0  0  0  0  0
    7.2536   13.2459   26.2088 C   0  0  0  0  0  0  0  0  0  0  0  0
    6.1758   12.8205   26.9460 C   0  0  0  0  0  0  0  0  0  0  0  0
    5.8257   11.4491   26.9572 C   0  0  0  0  0  0  0  0  0  0  0  0
    6.5310   10.5414   26.2101 C   0  0  0  0  0  0  0  0  0  0  0  0
    7.6333   10.9586   25.4234 C   0  0  0  0  0  0  0  0  0  0  0  0
    8.3006   10.0371   24.6600 N   0  0  0  0  0  0  0  0  0  0  0  0
    9.3057   10.4392   23.9599 C   0  0  0  0  0  0  0  0  0  0  0  0
   10.1028    9.2459   22.9629 Cl  0  0  0  0  0  0  0  0  0  0  0  0
   12.5408   13.6898   22.3112 C   0  0  2  0  0  0  0  0  0  0  0  0
   13.2206   15.0431   22.5824 C   0  0  0  0  0  0  0  0  0  0  0  0
   12.4613   15.6773   21.3992 C   0  0  0  0  0  0  0  0  0  0  0  0
   11.7074   14.3409   21.1396 C   0  0  2  0  0  0  0  0  0  0  0  0
   10.2246   14.3887   21.3039 C   0  0  0  0  0  0  0  0  0  0  0  0
    9.6306   14.7036   22.4544 N   0  0  0  0  0  0  0  0  0  0  0  0
    8.3288   14.6589   22.1119 N   0  0  0  0  0  0  0  0  0  0  0  0
    8.1847   14.3255   20.8199 C   0  0  0  0  0  0  0  0  0  0  0  0
    9.3702   14.1400   20.2768 N   0  0  0  0  0  0  0  0  0  0  0  0
  1  2  2  0
  2  3  1  0
  3  4  1  0
  4  5  2  0
  5  6  1  0
  6  7  2  0
  7  8  1  0
  8  9  2  0
  9 10  1  0
 10 11  2  0
 11 12  1  0
 12 13  2  0
 13 14  1  0
 15  2  1  1
 15 16  1  0
 16 17  1  0
 17 18  1  0
 18 19  1  1
 19 20  2  0
 20 21  1  0
 21 22  1  0
 22 23  2  0
 13  4  1  0
 18 15  1  0
 23 19  1  0
 11  6  1  0
M  END
>  <cnnaffinity>  (80) 
-6.02121

>  <cnnaffinityIC50>  (80) 
952.3355576028739 nanomolar

>  <smiles>  (80) 
O=C(NC1=CC2=CC=CC=C2N=C1Cl)[C@@H]1CC[C@@H]1C1=NNC=N1 Z5361503334

>  <ref_pdb>  (80) 
Ax0310a

>  <ref_mols>  (80) 
Ax1097a,Ax0310a

>  <rationale>  (80) 
Enamine real space elaborations around a merge of x1097 and x0310.

$$$$
Z3585618271
     RDKit          3D

 23 26  0  0  0  0  0  0  0  0999 V2000
    9.7622   13.4744   21.7744 O   0  0  0  0  0  0  0  0  0  0  0  0
   10.8043   13.0862   22.2629 C   0  0  0  0  0  0  0  0  0  0  0  0
   12.1553   13.7060   21.9031 C   0  0  0  0  0  0  0  0  0  0  0  0
   12.9685   14.0297   23.1273 C   0  0  0  0  0  0  0  0  0  0  0  0
   12.8410   15.1689   23.7766 N   0  0  0  0  0  0  0  0  0  0  0  0
   13.6381   14.9717   24.8565 N   0  0  0  0  0  0  0  0  0  0  0  0
   14.2333   13.7638   24.7975 C   0  0  0  0  0  0  0  0  0  0  0  0
   15.1646   13.2686   25.8332 C   0  0  0  0  0  0  0  0  0  0  0  0
   16.6451   13.5557   25.7712 C   0  0  0  0  0  0  0  0  0  0  0  0
   16.1268   12.1952   25.4322 C   0  0  0  0  0  0  0  0  0  0  0  0
   13.7859   13.1186   23.7238 N   0  0  0  0  0  0  0  0  0  0  0  0
   10.8530   12.0511   23.1712 N   0  0  0  0  0  0  0  0  0  0  0  0
    9.6980   11.7257   23.9304 C   0  0  0  0  0  0  0  0  0  0  0  0
    8.9540   12.6879   24.5572 C   0  0  0  0  0  0  0  0  0  0  0  0
    7.8907   12.3029   25.4019 C   0  0  0  0  0  0  0  0  0  0  0  0
    7.1560   13.2460   26.1681 C   0  0  0  0  0  0  0  0  0  0  0  0
    6.1525   12.7986   26.9744 C   0  0  0  0  0  0  0  0  0  0  0  0
    5.4524   13.6692   27.7229 F   0  0  0  0  0  0  0  0  0  0  0  0
    5.8053   11.4334   27.0620 C   0  0  0  0  0  0  0  0  0  0  0  0
    6.5081   10.5184   26.3244 C   0  0  0  0  0  0  0  0  0  0  0  0
    7.5853   10.9240   25.4905 C   0  0  0  0  0  0  0  0  0  0  0  0
    8.3001    9.9738   24.8129 N   0  0  0  0  0  0  0  0  0  0  0  0
    9.3187   10.3674   24.0910 C   0  0  0  0  0  0  0  0  0  0  0  0
  1  2  2  0
  2  3  1  0
  3  4  1  0
  4  5  2  0
  5  6  1  0
  6  7  1  0
  7  8  1  0
  8  9  1  0
  9 10  1  0
  7 11  2  0
  2 12  1  0
 12 13  1  0
 13 14  2  0
 14 15  1  0
 15 16  2  0
 16 17  1  0
 17 18  1  0
 17 19  2  0
 19 20  1  0
 20 21  2  0
 21 22  1  0
 22 23  2  0
 11  4  1  0
 23 13  1  0
 10  8  1  0
 21 15  1  0
M  END
>  <cnnaffinity>  (81) 
-6.01047

>  <cnnaffinityIC50>  (81) 
976.1802122413868 nanomolar

>  <smiles>  (81) 
O=C(CC1=NNC(C2CC2)=N1)NC1=CC2=CC(F)=CC=C2N=C1 Z3585618271

>  <ref_pdb>  (81) 
Ax0310a

>  <ref_mols>  (81) 
Ax1097a,Ax0310a

>  <rationale>  (81) 
Enamine real space elaborations around a merge of x1097 and x0310.

$$$$
PV-006665240382
     RDKit          3D

 28 32  0  0  0  0  0  0  0  0999 V2000
    4.6740   10.8858   27.9242 C   0  0  0  0  0  0  0  0  0  0  0  0
    5.8060   11.3554   27.0425 C   0  0  0  0  0  0  0  0  0  0  0  0
    6.1133   12.7335   26.9833 C   0  0  0  0  0  0  0  0  0  0  0  0
    7.1294   13.2552   26.2192 C   0  0  0  0  0  0  0  0  0  0  0  0
    7.3030   14.7531   26.2427 C   0  0  0  0  0  0  0  0  0  0  0  0
    7.9477   12.3434   25.4722 C   0  0  0  0  0  0  0  0  0  0  0  0
    9.1036   12.7009   24.7231 C   0  0  0  0  0  0  0  0  0  0  0  0
    9.5547   14.1186   24.5472 C   0  0  0  0  0  0  0  0  0  0  0  0
    9.0453   14.8568   23.7226 O   0  0  0  0  0  0  0  0  0  0  0  0
   10.5248   14.5233   25.4222 N   0  0  0  0  0  0  0  0  0  0  0  0
   11.3121   15.7041   25.1155 C   0  0  0  0  0  0  0  0  0  0  0  0
   12.2254   15.4572   23.9084 C   0  0  0  0  0  0  0  0  0  0  0  0
   13.1150   14.3575   24.2146 N   0  0  0  0  0  0  0  0  0  0  0  0
   14.0988   14.3526   25.1421 C   0  0  0  0  0  0  0  0  0  0  0  0
   14.4938   13.0394   25.2039 C   0  0  0  0  0  0  0  0  0  0  0  0
   15.5688   12.4325   26.0018 C   0  0  0  0  0  0  0  0  0  0  0  0
   16.9625   12.9773   25.8704 C   0  0  0  0  0  0  0  0  0  0  0  0
   16.6116   11.6419   25.2784 C   0  0  0  0  0  0  0  0  0  0  0  0
   13.7008   12.3181   24.3615 N   0  0  0  0  0  0  0  0  0  0  0  0
   12.8637   13.1228   23.7837 N   0  0  0  0  0  0  0  0  0  0  0  0
    9.8148   11.7216   24.0832 C   0  0  0  0  0  0  0  0  0  0  0  0
    9.3648   10.3819   24.0952 C   0  0  0  0  0  0  0  0  0  0  0  0
   10.1229    9.4061   23.2436 C   0  0  0  0  0  0  0  0  0  0  0  0
    9.3471    8.6590   22.2085 C   0  0  0  0  0  0  0  0  0  0  0  0
   10.2538    9.7770   21.7873 C   0  0  0  0  0  0  0  0  0  0  0  0
    8.3094   10.0069   24.7750 N   0  0  0  0  0  0  0  0  0  0  0  0
    7.6282   10.9489   25.4943 C   0  0  0  0  0  0  0  0  0  0  0  0
    6.5492   10.4918   26.2871 C   0  0  0  0  0  0  0  0  0  0  0  0
  1  2  1  0
  2  3  2  0
  3  4  1  0
  4  5  1  0
  4  6  2  0
  6  7  1  0
  7  8  1  0
  8  9  2  0
  8 10  1  0
 10 11  1  0
 11 12  1  0
 12 13  1  0
 13 14  1  0
 14 15  2  0
 15 16  1  0
 16 17  1  0
 17 18  1  0
 15 19  1  0
 19 20  2  0
  7 21  2  0
 21 22  1  0
 22 23  1  0
 23 24  1  0
 24 25  1  0
 22 26  2  0
 26 27  1  0
 27 28  2  0
 28  2  1  0
 27  6  1  0
 20 13  1  0
 25 23  1  0
 18 16  1  0
M  END
>  <cnnaffinity>  (82) 
-6.48334

>  <cnnaffinityIC50>  (82) 
328.59428061273564 nanomolar

>  <smiles>  (82) 
CC1=CC(C)=C2C(C(=O)NCCN3C=C(C4CC4)N=N3)=CC(C3CC3)=NC2=C1 PV-006665240382

>  <ref_pdb>  (82) 
Ax0310a

>  <ref_mols>  (82) 
Ax1097a,Ax0739a

>  <rationale>  (82) 
Enamine real space elaborations around a merge of x1097 and x0739.

$$$$
Z1355820080
     RDKit          3D

 31 35  0  0  0  0  0  0  0  0999 V2000
    4.7024   10.8802   27.9325 C   0  0  0  0  0  0  0  0  0  0  0  0
    5.8230   11.3604   27.0404 C   0  0  0  0  0  0  0  0  0  0  0  0
    6.1283   12.7401   26.9831 C   0  0  0  0  0  0  0  0  0  0  0  0
    7.1440   13.2639   26.2202 C   0  0  0  0  0  0  0  0  0  0  0  0
    7.3238   14.7621   26.2478 C   0  0  0  0  0  0  0  0  0  0  0  0
    7.9638   12.3546   25.4712 C   0  0  0  0  0  0  0  0  0  0  0  0
    9.1344   12.7058   24.7418 C   0  0  0  0  0  0  0  0  0  0  0  0
    9.6301   14.1041   24.5749 C   0  0  0  0  0  0  0  0  0  0  0  0
    9.0941   14.8855   23.8123 O   0  0  0  0  0  0  0  0  0  0  0  0
   10.7084   14.4223   25.3515 N   0  0  0  0  0  0  0  0  0  0  0  0
   11.5290   15.5717   25.0179 C   0  0  0  0  0  0  0  0  0  0  0  0
   12.3651   15.3293   23.7540 C   0  0  0  0  0  0  0  0  0  0  0  0
   13.3039   14.2016   24.0205 C   0  0  0  0  0  0  0  0  0  0  0  0
   13.0989   12.9710   23.6360 N   0  0  0  0  0  0  0  0  0  0  0  0
   14.1566   12.2759   24.2130 O   0  0  0  0  0  0  0  0  0  0  0  0
   14.8753   13.1676   24.8984 C   0  0  0  0  0  0  0  0  0  0  0  0
   16.0718   12.7185   25.6299 C   0  0  0  0  0  0  0  0  0  0  0  0
   16.4806   11.3872   25.5658 C   0  0  0  0  0  0  0  0  0  0  0  0
   17.6302   11.0304   26.2603 C   0  0  0  0  0  0  0  0  0  0  0  0
   18.3091   12.0044   26.9844 C   0  0  0  0  0  0  0  0  0  0  0  0
   17.8080   13.3041   26.9840 C   0  0  0  0  0  0  0  0  0  0  0  0
   16.7083   13.6635   26.3234 N   0  0  0  0  0  0  0  0  0  0  0  0
   14.3904   14.3717   24.8318 N   0  0  0  0  0  0  0  0  0  0  0  0
    9.8402   11.7311   24.0929 C   0  0  0  0  0  0  0  0  0  0  0  0
    9.3756   10.3982   24.0819 C   0  0  0  0  0  0  0  0  0  0  0  0
   10.1303    9.4259   23.2233 C   0  0  0  0  0  0  0  0  0  0  0  0
   10.2863    9.8160   21.7754 C   0  0  0  0  0  0  0  0  0  0  0  0
    9.3392    8.7181   22.1689 C   0  0  0  0  0  0  0  0  0  0  0  0
    8.3117   10.0224   24.7493 N   0  0  0  0  0  0  0  0  0  0  0  0
    7.6361   10.9619   25.4773 C   0  0  0  0  0  0  0  0  0  0  0  0
    6.5608   10.5034   26.2726 C   0  0  0  0  0  0  0  0  0  0  0  0
  1  2  1  0
  2  3  2  0
  3  4  1  0
  4  5  1  0
  4  6  2  0
  6  7  1  0
  7  8  1  0
  8  9  2  0
  8 10  1  0
 10 11  1  0
 11 12  1  0
 12 13  1  0
 13 14  2  0
 14 15  1  0
 15 16  1  0
 16 17  1  0
 17 18  2  0
 18 19  1  0
 19 20  2  0
 20 21  1  0
 21 22  2  0
 16 23  2  0
  7 24  2  0
 24 25  1  0
 25 26  1  0
 26 27  1  0
 27 28  1  0
 25 29  2  0
 29 30  1  0
 30 31  2  0
 31  2  1  0
 30  6  1  0
 23 13  1  0
 28 26  1  0
 22 17  1  0
M  END
>  <cnnaffinity>  (83) 
-6.47735

>  <cnnaffinityIC50>  (83) 
333.1578110707929 nanomolar

>  <smiles>  (83) 
CC1=CC(C)=C2C(C(=O)NCCC3=NOC(C4=CC=CC=N4)=N3)=CC(C3CC3)=NC2=C1 Z1355820080

>  <ref_pdb>  (83) 
Ax0310a

>  <ref_mols>  (83) 
Ax1097a,Ax0739a

>  <rationale>  (83) 
Enamine real space elaborations around a merge of x1097 and x0739.

$$$$
PV-004577236880
     RDKit          3D

 28 31  0  0  0  0  0  0  0  0999 V2000
   16.0740   13.8917   27.7938 C   0  0  0  0  0  0  0  0  0  0  0  0
   16.5509   12.8273   26.8433 C   0  0  0  0  0  0  0  0  0  0  0  0
   15.9382   12.3898   25.7369 C   0  0  0  0  0  0  0  0  0  0  0  0
   14.7678   12.9886   25.0984 C   0  0  0  0  0  0  0  0  0  0  0  0
   14.2374   14.2584   25.1710 C   0  0  0  0  0  0  0  0  0  0  0  0
   13.2356   14.2550   24.2649 N   0  0  0  0  0  0  0  0  0  0  0  0
   12.3295   15.3449   23.9538 C   0  0  0  0  0  0  0  0  0  0  0  0
   11.4109   15.6188   25.1498 C   0  0  0  0  0  0  0  0  0  0  0  0
   10.5917   14.4592   25.4501 N   0  0  0  0  0  0  0  0  0  0  0  0
    9.6124   14.0919   24.5698 C   0  0  0  0  0  0  0  0  0  0  0  0
    9.1481   14.8325   23.7221 O   0  0  0  0  0  0  0  0  0  0  0  0
    9.1255   12.6890   24.7282 C   0  0  0  0  0  0  0  0  0  0  0  0
    9.8275   11.7183   24.0665 C   0  0  0  0  0  0  0  0  0  0  0  0
    9.3750   10.3781   24.0687 C   0  0  0  0  0  0  0  0  0  0  0  0
   10.1225    9.4027   23.2049 C   0  0  0  0  0  0  0  0  0  0  0  0
    9.3642    8.6626   22.1460 C   0  0  0  0  0  0  0  0  0  0  0  0
   10.2542    9.8022   21.7571 C   0  0  0  0  0  0  0  0  0  0  0  0
    8.3245    9.9983   24.7537 N   0  0  0  0  0  0  0  0  0  0  0  0
    7.6541   10.9357   25.4913 C   0  0  0  0  0  0  0  0  0  0  0  0
    6.5689   10.4893   26.2805 C   0  0  0  0  0  0  0  0  0  0  0  0
    5.8314   11.3565   27.0381 C   0  0  0  0  0  0  0  0  0  0  0  0
    4.6948   10.8855   27.9117 C   0  0  0  0  0  0  0  0  0  0  0  0
    6.1480   12.7315   26.9947 C   0  0  0  0  0  0  0  0  0  0  0  0
    7.1642   13.2476   26.2286 C   0  0  0  0  0  0  0  0  0  0  0  0
    7.3293   14.7473   26.2339 C   0  0  0  0  0  0  0  0  0  0  0  0
    7.9755   12.3306   25.4813 C   0  0  0  0  0  0  0  0  0  0  0  0
   13.1038   13.0528   23.7079 N   0  0  0  0  0  0  0  0  0  0  0  0
   14.0292   12.2847   24.1903 N   0  0  0  0  0  0  0  0  0  0  0  0
  1  2  1  0
  2  3  2  3
  3  4  1  0
  4  5  2  0
  5  6  1  0
  6  7  1  0
  7  8  1  0
  8  9  1  0
  9 10  1  0
 10 11  2  0
 10 12  1  0
 12 13  2  0
 13 14  1  0
 14 15  1  0
 15 16  1  0
 16 17  1  0
 14 18  2  0
 18 19  1  0
 19 20  2  0
 20 21  1  0
 21 22  1  0
 21 23  2  0
 23 24  1  0
 24 25  1  0
 24 26  2  0
  6 27  1  0
 27 28  2  0
 28  4  1  0
 26 12  1  0
 17 15  1  0
 26 19  1  0
M  END
>  <cnnaffinity>  (84) 
-6.4421

>  <cnnaffinityIC50>  (84) 
361.32665452345185 nanomolar

>  <smiles>  (84) 
CC=CC1=CN(CCNC(=O)C2=CC(C3CC3)=NC3=CC(C)=CC(C)=C23)N=N1 PV-004577236880

>  <ref_pdb>  (84) 
Ax0310a

>  <ref_mols>  (84) 
Ax1097a,Ax0739a

>  <rationale>  (84) 
Enamine real space elaborations around a merge of x1097 and x0739.

$$$$
Z1457887361
     RDKit          3D

 29 33  0  0  0  0  0  0  0  0999 V2000
    4.7153   10.8988   27.8976 C   0  0  0  0  0  0  0  0  0  0  0  0
    5.8611   11.4082   27.0569 C   0  0  0  0  0  0  0  0  0  0  0  0
    6.1271   12.7945   26.9733 C   0  0  0  0  0  0  0  0  0  0  0  0
    7.1791   13.3166   26.2501 C   0  0  0  0  0  0  0  0  0  0  0  0
    7.2864   14.8151   26.1171 C   0  0  0  0  0  0  0  0  0  0  0  0
    8.0857   12.4095   25.6100 C   0  0  0  0  0  0  0  0  0  0  0  0
    9.2687   12.7683   24.8866 C   0  0  0  0  0  0  0  0  0  0  0  0
    9.9490   14.1131   24.9015 C   0  0  0  0  0  0  0  0  0  0  0  0
   10.2658   14.7120   25.9125 O   0  0  0  0  0  0  0  0  0  0  0  0
   10.3051   14.6086   23.6509 N   0  0  0  0  0  0  0  0  0  0  0  0
    9.4911   14.4953   22.5035 C   0  0  0  0  0  0  0  0  0  0  0  0
    8.1894   13.9749   22.5272 C   0  0  0  0  0  0  0  0  0  0  0  0
    7.4877   13.8066   21.3499 C   0  0  0  0  0  0  0  0  0  0  0  0
    8.0752   14.1671   20.1435 C   0  0  0  0  0  0  0  0  0  0  0  0
    9.3155   14.7679   20.1066 C   0  0  0  0  0  0  0  0  0  0  0  0
    9.9914   14.9932   21.2913 C   0  0  0  0  0  0  0  0  0  0  0  0
   11.1654   15.7542   21.2929 N   0  0  0  0  0  0  0  0  0  0  0  0
   11.8027   16.1486   22.4407 C   0  0  0  0  0  0  0  0  0  0  0  0
   12.4844   17.1500   22.4931 O   0  0  0  0  0  0  0  0  0  0  0  0
   11.6589   15.1741   23.5837 C   0  0  2  0  0  0  0  0  0  0  0  0
   12.7183   14.0700   23.4645 C   0  0  0  0  0  0  0  0  0  0  0  0
    9.8830   11.8162   24.1197 C   0  0  0  0  0  0  0  0  0  0  0  0
    9.4486   10.4761   24.1348 C   0  0  0  0  0  0  0  0  0  0  0  0
   10.1661    9.5027   23.2514 C   0  0  0  0  0  0  0  0  0  0  0  0
   10.2796    9.8765   21.7987 C   0  0  0  0  0  0  0  0  0  0  0  0
    9.3427    8.7895   22.2273 C   0  0  0  0  0  0  0  0  0  0  0  0
    8.4269   10.0847   24.8542 N   0  0  0  0  0  0  0  0  0  0  0  0
    7.7570   11.0185   25.5929 C   0  0  0  0  0  0  0  0  0  0  0  0
    6.6551   10.5533   26.3430 C   0  0  0  0  0  0  0  0  0  0  0  0
  1  2  1  0
  2  3  2  0
  3  4  1  0
  4  5  1  0
  4  6  2  0
  6  7  1  0
  7  8  1  0
  8  9  2  0
  8 10  1  0
 10 11  1  0
 11 12  2  0
 12 13  1  0
 13 14  2  0
 14 15  1  0
 15 16  2  0
 16 17  1  0
 17 18  1  0
 18 19  2  0
 18 20  1  0
 20 21  1  6
  7 22  2  0
 22 23  1  0
 23 24  1  0
 24 25  1  0
 25 26  1  0
 23 27  2  0
 27 28  1  0
 28 29  2  0
 29  2  1  0
 28  6  1  0
 20 10  1  0
 26 24  1  0
 16 11  1  0
M  END
>  <cnnaffinity>  (85) 
-6.39416

>  <cnnaffinityIC50>  (85) 
403.4967118989989 nanomolar

>  <smiles>  (85) 
CC1=CC(C)=C2C(C(=O)N3C4=CC=CC=C4NC(=O)C3C)=CC(C3CC3)=NC2=C1 Z1457887361

>  <ref_pdb>  (85) 
Ax0310a

>  <ref_mols>  (85) 
Ax1097a,Ax0739a

>  <rationale>  (85) 
Enamine real space elaborations around a merge of x1097 and x0739.

$$$$
Z1667922208
     RDKit          3D

 28 32  0  0  0  0  0  0  0  0999 V2000
    4.9518   11.0007   27.5576 C   0  0  0  0  0  0  0  0  0  0  0  0
    6.0931   11.6518   26.8376 C   0  0  0  0  0  0  0  0  0  0  0  0
    6.4540   12.9904   27.0410 C   0  0  0  0  0  0  0  0  0  0  0  0
    7.5525   13.5621   26.3725 C   0  0  0  0  0  0  0  0  0  0  0  0
    7.8492   15.0254   26.5803 C   0  0  0  0  0  0  0  0  0  0  0  0
    8.3109   12.7605   25.4859 C   0  0  0  0  0  0  0  0  0  0  0  0
    9.4657   13.2105   24.7989 C   0  0  0  0  0  0  0  0  0  0  0  0
   10.1845   14.5064   25.0257 C   0  0  0  0  0  0  0  0  0  0  0  0
   10.4371   14.9216   26.1540 O   0  0  0  0  0  0  0  0  0  0  0  0
   10.8332   15.0455   23.9059 N   0  0  0  0  0  0  0  0  0  0  0  0
   12.1821   15.6056   23.9556 C   0  0  0  0  0  0  0  0  0  0  0  0
   13.0100   14.9222   22.8454 C   0  0  0  0  0  0  0  0  0  0  0  0
   12.4382   15.1349   21.5317 O   0  0  0  0  0  0  0  0  0  0  0  0
   11.0819   14.9178   21.4405 C   0  0  0  0  0  0  0  0  0  0  0  0
   10.5402   14.7656   20.2155 N   0  0  0  0  0  0  0  0  0  0  0  0
    9.2252   14.4949   20.1248 C   0  0  0  0  0  0  0  0  0  0  0  0
    8.3884   14.3717   21.2434 C   0  0  0  0  0  0  0  0  0  0  0  0
    6.5278   13.9550   21.1174 Br  0  0  0  0  0  0  0  0  0  0  0  0
    8.9314   14.5553   22.5009 C   0  0  0  0  0  0  0  0  0  0  0  0
   10.2906   14.8340   22.6196 C   0  0  0  0  0  0  0  0  0  0  0  0
   10.0136   12.3220   23.8508 C   0  0  0  0  0  0  0  0  0  0  0  0
    9.4908   11.0499   23.6452 C   0  0  0  0  0  0  0  0  0  0  0  0
   10.0816   10.1543   22.5938 C   0  0  0  0  0  0  0  0  0  0  0  0
   11.1901    9.1599   22.9330 C   0  0  0  0  0  0  0  0  0  0  0  0
    9.7628    8.6671   22.7226 C   0  0  0  0  0  0  0  0  0  0  0  0
    8.4620   10.6071   24.3672 N   0  0  0  0  0  0  0  0  0  0  0  0
    7.8889   11.4257   25.2513 C   0  0  0  0  0  0  0  0  0  0  0  0
    6.8143   10.8898   25.9321 C   0  0  0  0  0  0  0  0  0  0  0  0
  1  2  1  0
  2  3  2  0
  3  4  1  0
  4  5  1  0
  4  6  2  0
  6  7  1  0
  7  8  1  0
  8  9  2  0
  8 10  1  0
 10 11  1  0
 11 12  1  0
 12 13  1  0
 13 14  1  0
 14 15  2  0
 15 16  1  0
 16 17  2  0
 17 18  1  0
 17 19  1  0
 19 20  2  0
  7 21  2  0
 21 22  1  0
 22 23  1  0
 23 24  1  0
 24 25  1  0
 22 26  2  0
 26 27  1  0
 27 28  2  0
 28  2  1  0
 27  6  1  0
 20 10  1  0
 25 23  1  0
 20 14  1  0
M  END
>  <cnnaffinity>  (86) 
-6.38636

>  <cnnaffinityIC50>  (86) 
410.8090477225613 nanomolar

>  <smiles>  (86) 
CC1=CC(C)=C2C(C(=O)N3CCOC4=NC=C(Br)C=C43)=CC(C3CC3)=NC2=C1 Z1667922208

>  <ref_pdb>  (86) 
Ax0310a

>  <ref_mols>  (86) 
Ax1097a,Ax0739a

>  <rationale>  (86) 
Enamine real space elaborations around a merge of x1097 and x0739.

$$$$
Z1354868948
     RDKit          3D

 28 31  0  0  0  0  0  0  0  0999 V2000
   15.0616   13.0657   27.2637 C   0  0  0  0  0  0  0  0  0  0  0  0
   15.8544   13.4994   26.0420 C   0  0  0  0  0  0  0  0  0  0  0  0
   15.0297   14.4036   25.1386 C   0  0  0  0  0  0  0  0  0  0  0  0
   13.8806   13.7602   24.3679 C   0  0  0  0  0  0  0  0  0  0  0  0
   13.2071   14.7672   23.5513 N   0  0  0  0  0  0  0  0  0  0  0  0
   13.7054   15.1087   22.3520 N   0  0  0  0  0  0  0  0  0  0  0  0
   13.0428   16.1350   21.9507 N   0  0  0  0  0  0  0  0  0  0  0  0
   12.1262   16.5046   22.8697 N   0  0  0  0  0  0  0  0  0  0  0  0
   12.2368   15.6497   23.8608 C   0  0  0  0  0  0  0  0  0  0  0  0
   11.4328   15.6205   25.1276 C   0  0  0  0  0  0  0  0  0  0  0  0
   10.7201   14.3721   25.3241 N   0  0  0  0  0  0  0  0  0  0  0  0
    9.6460   14.0641   24.5373 C   0  0  0  0  0  0  0  0  0  0  0  0
    9.1289   14.8487   23.7657 O   0  0  0  0  0  0  0  0  0  0  0  0
    9.1312   12.6673   24.7090 C   0  0  0  0  0  0  0  0  0  0  0  0
    9.7951   11.6826   24.0325 C   0  0  0  0  0  0  0  0  0  0  0  0
    9.3426   10.3444   24.0736 C   0  0  0  0  0  0  0  0  0  0  0  0
   10.0904    9.3633   23.2216 C   0  0  0  0  0  0  0  0  0  0  0  0
    9.3260    8.6285   22.1691 C   0  0  0  0  0  0  0  0  0  0  0  0
   10.2324    9.7534   21.7727 C   0  0  0  0  0  0  0  0  0  0  0  0
    8.2995    9.9782   24.7765 N   0  0  0  0  0  0  0  0  0  0  0  0
    7.6395   10.9332   25.5007 C   0  0  0  0  0  0  0  0  0  0  0  0
    6.5525   10.4922   26.2926 C   0  0  0  0  0  0  0  0  0  0  0  0
    5.8194   11.3639   27.0479 C   0  0  0  0  0  0  0  0  0  0  0  0
    4.6713   10.9090   27.9173 C   0  0  0  0  0  0  0  0  0  0  0  0
    6.1546   12.7360   27.0007 C   0  0  0  0  0  0  0  0  0  0  0  0
    7.1871   13.2415   26.2463 C   0  0  0  0  0  0  0  0  0  0  0  0
    7.4006   14.7342   26.2927 C   0  0  0  0  0  0  0  0  0  0  0  0
    7.9812   12.3237   25.4806 C   0  0  0  0  0  0  0  0  0  0  0  0
  1  2  1  0
  2  3  1  0
  3  4  1  0
  4  5  1  0
  5  6  1  0
  6  7  2  0
  7  8  1  0
  8  9  2  0
  9 10  1  0
 10 11  1  0
 11 12  1  0
 12 13  2  0
 12 14  1  0
 14 15  2  0
 15 16  1  0
 16 17  1  0
 17 18  1  0
 18 19  1  0
 16 20  2  0
 20 21  1  0
 21 22  2  0
 22 23  1  0
 23 24  1  0
 23 25  2  0
 25 26  1  0
 26 27  1  0
 26 28  2  0
  9  5  1  0
 28 14  1  0
 19 17  1  0
 28 21  1  0
M  END
>  <cnnaffinity>  (87) 
-6.33407

>  <cnnaffinityIC50>  (87) 
463.3722269381639 nanomolar

>  <smiles>  (87) 
CCCCN1N=NN=C1CNC(=O)C1=CC(C2CC2)=NC2=CC(C)=CC(C)=C12 Z1354868948

>  <ref_pdb>  (87) 
Ax0310a

>  <ref_mols>  (87) 
Ax1097a,Ax0739a

>  <rationale>  (87) 
Enamine real space elaborations around a merge of x1097 and x0739.

$$$$
PV-005666289285
     RDKit          3D

 28 31  0  0  0  0  0  0  0  0999 V2000
    4.6789   10.8781   27.9170 C   0  0  0  0  0  0  0  0  0  0  0  0
    5.8119   11.3539   27.0407 C   0  0  0  0  0  0  0  0  0  0  0  0
    6.1413   12.7283   26.9976 C   0  0  0  0  0  0  0  0  0  0  0  0
    7.1602   13.2360   26.2269 C   0  0  0  0  0  0  0  0  0  0  0  0
    7.3620   14.7307   26.2518 C   0  0  0  0  0  0  0  0  0  0  0  0
    7.9548   12.3165   25.4627 C   0  0  0  0  0  0  0  0  0  0  0  0
    9.1109   12.6585   24.7035 C   0  0  0  0  0  0  0  0  0  0  0  0
    9.6395   14.0471   24.5577 C   0  0  0  0  0  0  0  0  0  0  0  0
    9.1159   14.8654   23.8230 O   0  0  0  0  0  0  0  0  0  0  0  0
   10.7419   14.2953   25.3141 N   0  0  0  0  0  0  0  0  0  0  0  0
   11.5671   15.4563   25.0981 C   0  0  0  0  0  0  0  0  0  0  0  0
   12.7692   15.1283   24.2040 C   0  0  2  0  0  0  0  0  0  0  0  0
   12.3904   14.6185   22.8242 C   0  0  0  0  0  0  0  0  0  0  0  0
   13.6523   14.2083   24.9170 N   0  0  0  0  0  0  0  0  0  0  0  0
   14.4471   14.5248   25.9686 C   0  0  0  0  0  0  0  0  0  0  0  0
   14.9407   13.3235   26.4031 C   0  0  0  0  0  0  0  0  0  0  0  0
   15.8736   13.0448   27.5468 C   0  0  0  0  0  0  0  0  0  0  0  0
   15.2176   12.8908   28.7954 O   0  0  0  0  0  0  0  0  0  0  0  0
   14.4050   12.3478   25.6208 N   0  0  0  0  0  0  0  0  0  0  0  0
   13.6149   12.8890   24.7416 N   0  0  0  0  0  0  0  0  0  0  0  0
    9.7845   11.6744   24.0331 C   0  0  0  0  0  0  0  0  0  0  0  0
    9.3361   10.3372   24.0640 C   0  0  0  0  0  0  0  0  0  0  0  0
   10.0953    9.3574   23.2157 C   0  0  0  0  0  0  0  0  0  0  0  0
   10.2596    9.7505   21.7707 C   0  0  0  0  0  0  0  0  0  0  0  0
    9.3270    8.6397   22.1508 C   0  0  0  0  0  0  0  0  0  0  0  0
    8.2846    9.9712   24.7567 N   0  0  0  0  0  0  0  0  0  0  0  0
    7.6174   10.9255   25.4760 C   0  0  0  0  0  0  0  0  0  0  0  0
    6.5331   10.4861   26.2683 C   0  0  0  0  0  0  0  0  0  0  0  0
  1  2  1  0
  2  3  2  0
  3  4  1  0
  4  5  1  0
  4  6  2  0
  6  7  1  0
  7  8  1  0
  8  9  2  0
  8 10  1  0
 10 11  1  0
 11 12  1  0
 12 13  1  6
 12 14  1  0
 14 15  1  0
 15 16  2  0
 16 17  1  0
 17 18  1  0
 16 19  1  0
 19 20  2  0
  7 21  2  0
 21 22  1  0
 22 23  1  0
 23 24  1  0
 24 25  1  0
 22 26  2  0
 26 27  1  0
 27 28  2  0
 28  2  1  0
 27  6  1  0
 20 14  1  0
 25 23  1  0
M  END
>  <cnnaffinity>  (88) 
-6.32944

>  <cnnaffinityIC50>  (88) 
468.33865027993164 nanomolar

>  <smiles>  (88) 
CC1=CC(C)=C2C(C(=O)NC[C@H](C)N3C=C(CO)N=N3)=CC(C3CC3)=NC2=C1 PV-005666289285

>  <ref_pdb>  (88) 
Ax0310a

>  <ref_mols>  (88) 
Ax1097a,Ax0739a

>  <rationale>  (88) 
Enamine real space elaborations around a merge of x1097 and x0739.

$$$$
Z1355126917
     RDKit          3D

 31 35  0  0  0  0  0  0  0  0999 V2000
    4.8337   10.3143   27.5796 C   0  0  0  0  0  0  0  0  0  0  0  0
    5.8241   11.0360   26.7027 C   0  0  0  0  0  0  0  0  0  0  0  0
    6.0218   12.4212   26.8799 C   0  0  0  0  0  0  0  0  0  0  0  0
    6.9323   13.1633   26.1629 C   0  0  0  0  0  0  0  0  0  0  0  0
    6.9091   14.6470   26.4559 C   0  0  0  0  0  0  0  0  0  0  0  0
    7.7881   12.4745   25.2287 C   0  0  0  0  0  0  0  0  0  0  0  0
    8.8507   13.0278   24.4412 C   0  0  0  0  0  0  0  0  0  0  0  0
    9.1910   14.4825   24.4752 C   0  0  0  0  0  0  0  0  0  0  0  0
    8.3558   15.3497   24.2770 O   0  0  0  0  0  0  0  0  0  0  0  0
   10.4949   14.7275   24.7939 N   0  0  0  0  0  0  0  0  0  0  0  0
   10.9316   15.9294   25.4810 C   0  0  0  0  0  0  0  0  0  0  0  0
   11.3385   15.6280   26.9112 C   0  0  0  0  0  0  0  0  0  0  0  0
   10.3364   15.5962   27.8836 C   0  0  0  0  0  0  0  0  0  0  0  0
   10.6051   15.1963   29.1884 C   0  0  0  0  0  0  0  0  0  0  0  0
   11.8966   14.8123   29.5328 C   0  0  0  0  0  0  0  0  0  0  0  0
   12.9058   14.8727   28.5802 C   0  0  0  0  0  0  0  0  0  0  0  0
   12.6549   15.3067   27.2818 C   0  0  0  0  0  0  0  0  0  0  0  0
   13.8505   15.4384   26.3604 C   0  0  0  0  0  0  0  0  0  0  0  0
   14.2442   14.1747   25.7563 N   0  0  0  0  0  0  0  0  0  0  0  0
   15.2787   13.3538   26.0102 C   0  0  0  0  0  0  0  0  0  0  0  0
   15.1741   12.2442   25.3037 N   0  0  0  0  0  0  0  0  0  0  0  0
   14.0161   12.4433   24.6196 C   0  0  0  0  0  0  0  0  0  0  0  0
   13.4064   13.5906   24.8724 N   0  0  0  0  0  0  0  0  0  0  0  0
    9.5955   12.2123   23.6179 C   0  0  0  0  0  0  0  0  0  0  0  0
    9.3365   10.8240   23.5562 C   0  0  0  0  0  0  0  0  0  0  0  0
   10.1646    9.9461   22.6703 C   0  0  0  0  0  0  0  0  0  0  0  0
   11.3964    9.2312   23.1944 C   0  0  0  0  0  0  0  0  0  0  0  0
   10.1198    8.4937   22.9856 C   0  0  0  0  0  0  0  0  0  0  0  0
    8.3764   10.2803   24.2624 N   0  0  0  0  0  0  0  0  0  0  0  0
    7.5990   11.0673   25.0566 C   0  0  0  0  0  0  0  0  0  0  0  0
    6.5665   10.3991   25.7524 C   0  0  0  0  0  0  0  0  0  0  0  0
  1  2  1  0
  2  3  2  0
  3  4  1  0
  4  5  1  0
  4  6  2  0
  6  7  1  0
  7  8  1  0
  8  9  2  0
  8 10  1  0
 10 11  1  0
 11 12  1  0
 12 13  2  0
 13 14  1  0
 14 15  2  0
 15 16  1  0
 16 17  2  0
 17 18  1  0
 18 19  1  0
 19 20  1  0
 20 21  2  0
 21 22  1  0
 22 23  2  0
  7 24  2  0
 24 25  1  0
 25 26  1  0
 26 27  1  0
 27 28  1  0
 25 29  2  0
 29 30  1  0
 30 31  2  0
 31  2  1  0
 30  6  1  0
 17 12  1  0
 23 19  1  0
 28 26  1  0
M  END
>  <cnnaffinity>  (89) 
-6.32863

>  <cnnaffinityIC50>  (89) 
469.2129609338617 nanomolar

>  <smiles>  (89) 
CC1=CC(C)=C2C(C(=O)NCC3=CC=CC=C3CN3C=NC=N3)=CC(C3CC3)=NC2=C1 Z1355126917

>  <ref_pdb>  (89) 
Ax0310a

>  <ref_mols>  (89) 
Ax1097a,Ax0739a

>  <rationale>  (89) 
Enamine real space elaborations around a merge of x1097 and x0739.

$$$$
Z1354893693
     RDKit          3D

 28 32  0  0  0  0  0  0  0  0999 V2000
    4.8054   11.0145   27.9292 C   0  0  0  0  0  0  0  0  0  0  0  0
    5.9793   11.4446   27.0875 C   0  0  0  0  0  0  0  0  0  0  0  0
    6.2872   12.8151   26.9455 C   0  0  0  0  0  0  0  0  0  0  0  0
    7.3558   13.2827   26.2123 C   0  0  0  0  0  0  0  0  0  0  0  0
    7.4925   14.7827   26.0883 C   0  0  0  0  0  0  0  0  0  0  0  0
    8.2189   12.3219   25.5860 C   0  0  0  0  0  0  0  0  0  0  0  0
    9.3994   12.6112   24.8201 C   0  0  0  0  0  0  0  0  0  0  0  0
   10.1610   13.9138   24.7876 C   0  0  0  0  0  0  0  0  0  0  0  0
   10.4964   14.5697   25.7532 O   0  0  0  0  0  0  0  0  0  0  0  0
   10.5415   14.3062   23.4952 N   0  0  0  0  0  0  0  0  0  0  0  0
   11.9263   14.7531   23.3825 C   0  0  0  0  0  0  0  0  0  0  0  0
   12.2832   15.4651   22.0973 C   0  0  0  0  0  0  0  0  0  0  0  0
   13.4260   15.7872   21.8421 O   0  0  0  0  0  0  0  0  0  0  0  0
   11.2473   15.7294   21.2416 N   0  0  0  0  0  0  0  0  0  0  0  0
    9.9127   15.3584   21.4256 C   0  0  0  0  0  0  0  0  0  0  0  0
    8.9072   15.8126   20.5838 C   0  0  0  0  0  0  0  0  0  0  0  0
    7.6293   15.5201   20.7640 N   0  0  0  0  0  0  0  0  0  0  0  0
    7.3021   14.7059   21.7628 C   0  0  0  0  0  0  0  0  0  0  0  0
    8.2225   14.1977   22.6541 C   0  0  0  0  0  0  0  0  0  0  0  0
    9.5617   14.5763   22.5262 C   0  0  0  0  0  0  0  0  0  0  0  0
    9.9295   11.6173   24.0436 C   0  0  0  0  0  0  0  0  0  0  0  0
    9.4744   10.2863   24.1459 C   0  0  0  0  0  0  0  0  0  0  0  0
   10.1083    9.2546   23.2606 C   0  0  0  0  0  0  0  0  0  0  0  0
    9.2451    8.6852   22.1779 C   0  0  0  0  0  0  0  0  0  0  0  0
   10.2948    9.6937   21.8358 C   0  0  0  0  0  0  0  0  0  0  0  0
    8.4887    9.9523   24.9390 N   0  0  0  0  0  0  0  0  0  0  0  0
    7.8563   10.9397   25.6408 C   0  0  0  0  0  0  0  0  0  0  0  0
    6.7534   10.5370   26.4258 C   0  0  0  0  0  0  0  0  0  0  0  0
  1  2  1  0
  2  3  2  0
  3  4  1  0
  4  5  1  0
  4  6  2  0
  6  7  1  0
  7  8  1  0
  8  9  2  0
  8 10  1  0
 10 11  1  0
 11 12  1  0
 12 13  2  0
 12 14  1  0
 14 15  1  0
 15 16  2  0
 16 17  1  0
 17 18  2  0
 18 19  1  0
 19 20  2  0
  7 21  2  0
 21 22  1  0
 22 23  1  0
 23 24  1  0
 24 25  1  0
 22 26  2  0
 26 27  1  0
 27 28  2  0
 28  2  1  0
 27  6  1  0
 20 10  1  0
 25 23  1  0
 20 15  1  0
M  END
>  <cnnaffinity>  (90) 
-6.32604

>  <cnnaffinityIC50>  (90) 
472.0195646529226 nanomolar

>  <smiles>  (90) 
CC1=CC(C)=C2C(C(=O)N3CC(=O)NC4=CN=CC=C43)=CC(C3CC3)=NC2=C1 Z1354893693

>  <ref_pdb>  (90) 
Ax0310a

>  <ref_mols>  (90) 
Ax1097a,Ax0739a

>  <rationale>  (90) 
Enamine real space elaborations around a merge of x1097 and x0739.

$$$$
Z1355104027
     RDKit          3D

 28 32  0  0  0  0  0  0  0  0999 V2000
    4.6904   10.9187   27.9271 C   0  0  0  0  0  0  0  0  0  0  0  0
    5.8394   11.4014   27.0722 C   0  0  0  0  0  0  0  0  0  0  0  0
    6.1307   12.7839   26.9829 C   0  0  0  0  0  0  0  0  0  0  0  0
    7.1845   13.2942   26.2538 C   0  0  0  0  0  0  0  0  0  0  0  0
    7.3217   14.7933   26.1751 C   0  0  0  0  0  0  0  0  0  0  0  0
    8.0691   12.3781   25.5942 C   0  0  0  0  0  0  0  0  0  0  0  0
    9.2499   12.7209   24.8494 C   0  0  0  0  0  0  0  0  0  0  0  0
    9.9823   14.0497   24.8429 C   0  0  0  0  0  0  0  0  0  0  0  0
   10.3126   14.6678   25.8360 O   0  0  0  0  0  0  0  0  0  0  0  0
   10.3695   14.4909   23.5745 N   0  0  0  0  0  0  0  0  0  0  0  0
   11.7797   14.8859   23.4288 C   0  0  0  0  0  0  0  0  0  0  0  0
   11.9991   15.5908   22.1006 C   0  0  0  0  0  0  0  0  0  0  0  0
   11.4273   14.7884   21.0273 N   0  0  0  0  0  0  0  0  0  0  0  0
   11.9104   14.9707   19.6709 C   0  0  0  0  0  0  0  0  0  0  0  0
   10.0900   14.5074   21.1639 C   0  0  0  0  0  0  0  0  0  0  0  0
    9.3699   14.3502   20.0583 N   0  0  0  0  0  0  0  0  0  0  0  0
    8.0709   14.1216   20.1885 C   0  0  0  0  0  0  0  0  0  0  0  0
    7.4164   14.0035   21.4009 C   0  0  0  0  0  0  0  0  0  0  0  0
    8.1591   14.1462   22.5587 C   0  0  0  0  0  0  0  0  0  0  0  0
    9.5290   14.3746   22.4598 C   0  0  0  0  0  0  0  0  0  0  0  0
    9.8220   11.7496   24.0725 C   0  0  0  0  0  0  0  0  0  0  0  0
    9.3736   10.4130   24.1117 C   0  0  0  0  0  0  0  0  0  0  0  0
   10.0956    9.4253   23.2481 C   0  0  0  0  0  0  0  0  0  0  0  0
    9.2969    8.7117   22.2012 C   0  0  0  0  0  0  0  0  0  0  0  0
   10.2254    9.8155   21.8046 C   0  0  0  0  0  0  0  0  0  0  0  0
    8.3555   10.0404   24.8452 N   0  0  0  0  0  0  0  0  0  0  0  0
    7.7082   10.9928   25.5808 C   0  0  0  0  0  0  0  0  0  0  0  0
    6.6112   10.5370   26.3477 C   0  0  0  0  0  0  0  0  0  0  0  0
  1  2  1  0
  2  3  2  0
  3  4  1  0
  4  5  1  0
  4  6  2  0
  6  7  1  0
  7  8  1  0
  8  9  2  0
  8 10  1  0
 10 11  1  0
 11 12  1  0
 12 13  1  0
 13 14  1  0
 13 15  1  0
 15 16  2  0
 16 17  1  0
 17 18  2  0
 18 19  1  0
 19 20  2  0
  7 21  2  0
 21 22  1  0
 22 23  1  0
 23 24  1  0
 24 25  1  0
 22 26  2  0
 26 27  1  0
 27 28  2  0
 28  2  1  0
 27  6  1  0
 20 10  1  0
 25 23  1  0
 20 15  1  0
M  END
>  <cnnaffinity>  (91) 
-6.29903

>  <cnnaffinityIC50>  (91) 
502.3078901241292 nanomolar

>  <smiles>  (91) 
CC1=CC(C)=C2C(C(=O)N3CCN(C)C4=NC=CC=C43)=CC(C3CC3)=NC2=C1 Z1355104027

>  <ref_pdb>  (91) 
Ax0310a

>  <ref_mols>  (91) 
Ax1097a,Ax0739a

>  <rationale>  (91) 
Enamine real space elaborations around a merge of x1097 and x0739.

$$$$
Z4270762792
     RDKit          3D

 26 30  0  0  0  0  0  0  0  0999 V2000
    4.8215   10.9604   27.8389 C   0  0  0  0  0  0  0  0  0  0  0  0
    5.9926   11.4521   27.0252 C   0  0  0  0  0  0  0  0  0  0  0  0
    6.2676   12.8325   26.9044 C   0  0  0  0  0  0  0  0  0  0  0  0
    7.3081   13.3331   26.1504 C   0  0  0  0  0  0  0  0  0  0  0  0
    7.4232   14.8338   26.0422 C   0  0  0  0  0  0  0  0  0  0  0  0
    8.1831   12.4105   25.4868 C   0  0  0  0  0  0  0  0  0  0  0  0
    9.3139   12.7523   24.6733 C   0  0  0  0  0  0  0  0  0  0  0  0
    9.9377   14.1292   24.5576 C   0  0  0  0  0  0  0  0  0  0  0  0
   10.3349   14.7562   25.5202 O   0  0  0  0  0  0  0  0  0  0  0  0
   10.1540   14.6090   23.2715 N   0  0  0  0  0  0  0  0  0  0  0  0
   11.3517   15.3787   22.9415 C   0  0  0  0  0  0  0  0  0  0  0  0
   11.8058   15.0429   21.5175 C   0  0  0  0  0  0  0  0  0  0  0  0
   10.7168   15.4529   20.5248 C   0  0  0  0  0  0  0  0  0  0  0  0
    9.4437   14.7933   20.9245 C   0  0  0  0  0  0  0  0  0  0  0  0
    8.4101   14.4381   20.2110 N   0  0  0  0  0  0  0  0  0  0  0  0
    7.4563   13.9453   21.0721 N   0  0  0  0  0  0  0  0  0  0  0  0
    7.9497   14.0109   22.2752 C   0  0  0  0  0  0  0  0  0  0  0  0
    9.2126   14.5189   22.2453 N   0  0  0  0  0  0  0  0  0  0  0  0
    9.9205   11.7606   23.9483 C   0  0  0  0  0  0  0  0  0  0  0  0
    9.5171   10.4090   24.0733 C   0  0  0  0  0  0  0  0  0  0  0  0
   10.2024    9.3730   23.2317 C   0  0  0  0  0  0  0  0  0  0  0  0
   10.3666    9.7357   21.7852 C   0  0  0  0  0  0  0  0  0  0  0  0
    9.3617    8.6998   22.1862 C   0  0  0  0  0  0  0  0  0  0  0  0
    8.5427   10.0440   24.8673 N   0  0  0  0  0  0  0  0  0  0  0  0
    7.8792   11.0124   25.5650 C   0  0  0  0  0  0  0  0  0  0  0  0
    6.7994   10.5727   26.3616 C   0  0  0  0  0  0  0  0  0  0  0  0
  1  2  1  0
  2  3  2  0
  3  4  1  0
  4  5  1  0
  4  6  2  0
  6  7  1  0
  7  8  1  0
  8  9  2  0
  8 10  1  0
 10 11  1  0
 11 12  1  0
 12 13  1  0
 13 14  1  0
 14 15  2  0
 15 16  1  0
 16 17  2  0
 17 18  1  0
  7 19  2  0
 19 20  1  0
 20 21  1  0
 21 22  1  0
 22 23  1  0
 20 24  2  0
 24 25  1  0
 25 26  2  0
 26  2  1  0
 25  6  1  0
 18 10  1  0
 23 21  1  0
 18 14  1  0
M  END
>  <cnnaffinity>  (92) 
-6.23543

>  <cnnaffinityIC50>  (92) 
581.527155858236 nanomolar

>  <smiles>  (92) 
CC1=CC(C)=C2C(C(=O)N3CCCC4=NN=CN43)=CC(C3CC3)=NC2=C1 Z4270762792

>  <ref_pdb>  (92) 
Ax0310a

>  <ref_mols>  (92) 
Ax1097a,Ax0739a

>  <rationale>  (92) 
Enamine real space elaborations around a merge of x1097 and x0739.

$$$$
PV-004592631936
     RDKit          3D

 28 31  0  0  0  0  0  0  0  0999 V2000
    4.6976   10.9032   27.9257 C   0  0  0  0  0  0  0  0  0  0  0  0
    5.8047   11.3721   27.0126 C   0  0  0  0  0  0  0  0  0  0  0  0
    6.1134   12.7492   26.9355 C   0  0  0  0  0  0  0  0  0  0  0  0
    7.1219   13.2481   26.1454 C   0  0  0  0  0  0  0  0  0  0  0  0
    7.3366   14.7397   26.1733 C   0  0  0  0  0  0  0  0  0  0  0  0
    7.9006   12.3283   25.3681 C   0  0  0  0  0  0  0  0  0  0  0  0
    9.0002   12.6735   24.5321 C   0  0  0  0  0  0  0  0  0  0  0  0
    9.5076   14.0684   24.3242 C   0  0  0  0  0  0  0  0  0  0  0  0
    9.0010   14.8613   23.5507 O   0  0  0  0  0  0  0  0  0  0  0  0
   10.6142   14.3031   25.0750 N   0  0  0  0  0  0  0  0  0  0  0  0
   11.2508   15.5987   25.2458 C   0  0  0  0  0  0  0  0  0  0  0  0
   12.1793   15.4359   26.4066 C   0  0  0  0  0  0  0  0  0  0  0  0
   13.5362   15.2827   26.4884 C   0  0  0  0  0  0  0  0  0  0  0  0
   13.7615   14.9952   27.7987 N   0  0  0  0  0  0  0  0  0  0  0  0
   15.0406   14.8056   28.4740 C   0  0  0  0  0  0  0  0  0  0  0  0
   15.3698   13.3803   28.9532 C   0  0  0  0  0  0  0  0  0  0  0  0
   14.4820   12.9339   30.1136 C   0  0  0  0  0  0  0  0  0  0  0  0
   16.8306   13.3662   29.4065 C   0  0  0  0  0  0  0  0  0  0  0  0
   12.6126   14.9847   28.4768 N   0  0  0  0  0  0  0  0  0  0  0  0
   11.6470   15.2156   27.6387 N   0  0  0  0  0  0  0  0  0  0  0  0
    9.6840   11.6808   23.8879 C   0  0  0  0  0  0  0  0  0  0  0  0
    9.3026   10.3259   24.0174 C   0  0  0  0  0  0  0  0  0  0  0  0
   10.0713    9.3146   23.2157 C   0  0  0  0  0  0  0  0  0  0  0  0
   10.2531    9.6638   21.7600 C   0  0  0  0  0  0  0  0  0  0  0  0
    9.3187    8.5672   22.1627 C   0  0  0  0  0  0  0  0  0  0  0  0
    8.2876    9.9609   24.7601 N   0  0  0  0  0  0  0  0  0  0  0  0
    7.6031   10.9288   25.4431 C   0  0  0  0  0  0  0  0  0  0  0  0
    6.5367   10.4946   26.2644 C   0  0  0  0  0  0  0  0  0  0  0  0
  1  2  1  0
  2  3  2  0
  3  4  1  0
  4  5  1  0
  4  6  2  0
  6  7  1  0
  7  8  1  0
  8  9  2  0
  8 10  1  0
 10 11  1  0
 11 12  1  0
 12 13  2  0
 13 14  1  0
 14 15  1  0
 15 16  1  0
 16 17  1  0
 16 18  1  0
 14 19  1  0
 19 20  2  0
  7 21  2  0
 21 22  1  0
 22 23  1  0
 23 24  1  0
 24 25  1  0
 22 26  2  0
 26 27  1  0
 27 28  2  0
 28  2  1  0
 27  6  1  0
 20 12  1  0
 25 23  1  0
M  END
>  <cnnaffinity>  (93) 
-6.22714

>  <cnnaffinityIC50>  (93) 
592.7342188423507 nanomolar

>  <smiles>  (93) 
CC1=CC(C)=C2C(C(=O)NCC3=CN(CC(C)C)N=N3)=CC(C3CC3)=NC2=C1 PV-004592631936

>  <ref_pdb>  (93) 
Ax0310a

>  <ref_mols>  (93) 
Ax1097a,Ax0739a

>  <rationale>  (93) 
Enamine real space elaborations around a merge of x1097 and x0739.

$$$$
Z1500141987
     RDKit          3D

 32 36  0  0  0  0  0  0  0  0999 V2000
    4.7104   10.8583   27.9129 C   0  0  0  0  0  0  0  0  0  0  0  0
    5.8043   11.3494   27.0017 C   0  0  0  0  0  0  0  0  0  0  0  0
    6.1055   12.7264   26.9376 C   0  0  0  0  0  0  0  0  0  0  0  0
    7.1207   13.2363   26.1634 C   0  0  0  0  0  0  0  0  0  0  0  0
    7.2931   14.7349   26.1999 C   0  0  0  0  0  0  0  0  0  0  0  0
    7.9229   12.3169   25.4053 C   0  0  0  0  0  0  0  0  0  0  0  0
    9.0583   12.6551   24.6133 C   0  0  0  0  0  0  0  0  0  0  0  0
    9.5851   14.0462   24.4829 C   0  0  0  0  0  0  0  0  0  0  0  0
    8.9987   14.9161   23.8664 O   0  0  0  0  0  0  0  0  0  0  0  0
   10.7649   14.2337   25.1294 N   0  0  0  0  0  0  0  0  0  0  0  0
   11.2871   15.5465   25.4634 C   0  0  0  0  0  0  0  0  0  0  0  0
   12.1199   15.3957   26.6891 C   0  0  0  0  0  0  0  0  0  0  0  0
   13.3444   14.9427   26.6657 N   0  0  0  0  0  0  0  0  0  0  0  0
   13.7887   14.8818   27.9657 N   0  0  0  0  0  0  0  0  0  0  0  0
   12.8102   15.2949   28.7279 C   0  0  0  0  0  0  0  0  0  0  0  0
   12.8168   15.5346   30.1984 C   0  0  0  0  0  0  0  0  0  0  0  0
   11.4094   15.3973   30.7710 C   0  0  0  0  0  0  0  0  0  0  0  0
   10.4391   16.2700   29.9695 C   0  0  2  0  0  0  0  0  0  0  0  0
    9.0494   16.2357   30.5769 C   0  0  0  0  0  0  0  0  0  0  0  0
    8.1722   17.0013   29.8968 F   0  0  0  0  0  0  0  0  0  0  0  0
    8.5424   14.9789   30.5872 F   0  0  0  0  0  0  0  0  0  0  0  0
    9.0453   16.6650   31.8543 F   0  0  0  0  0  0  0  0  0  0  0  0
   10.3734   15.8232   28.5040 C   0  0  0  0  0  0  0  0  0  0  0  0
   11.7113   15.6089   27.9759 N   0  0  0  0  0  0  0  0  0  0  0  0
    9.7226   11.6793   23.9234 C   0  0  0  0  0  0  0  0  0  0  0  0
    9.3192   10.3276   24.0113 C   0  0  0  0  0  0  0  0  0  0  0  0
   10.0878    9.3181   23.2033 C   0  0  0  0  0  0  0  0  0  0  0  0
    9.3177    8.5994   22.1416 C   0  0  0  0  0  0  0  0  0  0  0  0
   10.2866    9.6750   21.7523 C   0  0  0  0  0  0  0  0  0  0  0  0
    8.2940    9.9609   24.7419 N   0  0  0  0  0  0  0  0  0  0  0  0
    7.6102   10.9196   25.4415 C   0  0  0  0  0  0  0  0  0  0  0  0
    6.5307   10.4804   26.2391 C   0  0  0  0  0  0  0  0  0  0  0  0
  1  2  1  0
  2  3  2  0
  3  4  1  0
  4  5  1  0
  4  6  2  0
  6  7  1  0
  7  8  1  0
  8  9  2  0
  8 10  1  0
 10 11  1  0
 11 12  1  0
 12 13  2  0
 13 14  1  0
 14 15  2  0
 15 16  1  0
 16 17  1  0
 17 18  1  0
 18 19  1  1
 19 20  1  0
 19 21  1  0
 19 22  1  0
 18 23  1  0
 23 24  1  0
  7 25  2  0
 25 26  1  0
 26 27  1  0
 27 28  1  0
 28 29  1  0
 26 30  2  0
 30 31  1  0
 31 32  2  0
 32  2  1  0
 31  6  1  0
 24 12  1  0
 29 27  1  0
 24 15  1  0
M  END
>  <cnnaffinity>  (94) 
-6.22584

>  <cnnaffinityIC50>  (94) 
594.5111442741949 nanomolar

>  <smiles>  (94) 
CC1=CC(C)=C2C(C(=O)NCC3=NN=C4CCC(C(F)(F)F)CN43)=CC(C3CC3)=NC2=C1 Z1500141987

>  <ref_pdb>  (94) 
Ax0310a

>  <ref_mols>  (94) 
Ax1097a,Ax0739a

>  <rationale>  (94) 
Enamine real space elaborations around a merge of x1097 and x0739.

$$$$
Z1355374184
     RDKit          3D

 29 32  0  0  0  0  0  0  0  0999 V2000
    4.7067   10.9430   27.9077 C   0  0  0  0  0  0  0  0  0  0  0  0
    5.8393   11.3952   27.0143 C   0  0  0  0  0  0  0  0  0  0  0  0
    6.1606   12.7700   26.9266 C   0  0  0  0  0  0  0  0  0  0  0  0
    7.1767   13.2632   26.1429 C   0  0  0  0  0  0  0  0  0  0  0  0
    7.4091   14.7533   26.1699 C   0  0  0  0  0  0  0  0  0  0  0  0
    7.9663   12.3377   25.3896 C   0  0  0  0  0  0  0  0  0  0  0  0
    9.0919   12.6742   24.5863 C   0  0  0  0  0  0  0  0  0  0  0  0
    9.6502   14.0447   24.4367 C   0  0  0  0  0  0  0  0  0  0  0  0
    9.3443   14.8317   23.5811 O   0  0  0  0  0  0  0  0  0  0  0  0
   10.5893   14.2358   25.3696 O   0  0  0  0  0  0  0  0  0  0  0  0
   11.2135   15.5167   25.5051 C   0  0  0  0  0  0  0  0  0  0  0  0
   11.9300   15.4276   26.8148 C   0  0  0  0  0  0  0  0  0  0  0  0
   13.1591   15.0863   27.0314 N   0  0  0  0  0  0  0  0  0  0  0  0
   13.2200   15.0719   28.4099 C   0  0  0  0  0  0  0  0  0  0  0  0
   14.4866   14.7844   29.1639 C   0  0  0  0  0  0  0  0  0  0  0  0
   14.6199   13.4272   29.8394 C   0  0  0  0  0  0  0  0  0  0  0  0
   13.6201   13.1737   30.6915 F   0  0  0  0  0  0  0  0  0  0  0  0
   14.6705   12.4205   28.9550 F   0  0  0  0  0  0  0  0  0  0  0  0
   15.7679   13.4017   30.5406 F   0  0  0  0  0  0  0  0  0  0  0  0
   12.0988   15.3908   28.9911 N   0  0  0  0  0  0  0  0  0  0  0  0
   11.2288   15.6159   27.9343 O   0  0  0  0  0  0  0  0  0  0  0  0
    9.7516   11.6881   23.9124 C   0  0  0  0  0  0  0  0  0  0  0  0
    9.3251   10.3436   24.0093 C   0  0  0  0  0  0  0  0  0  0  0  0
   10.0868    9.3342   23.2064 C   0  0  0  0  0  0  0  0  0  0  0  0
    9.3267    8.5770   22.1676 C   0  0  0  0  0  0  0  0  0  0  0  0
   10.2433    9.6824   21.7476 C   0  0  0  0  0  0  0  0  0  0  0  0
    8.2997    9.9820   24.7398 N   0  0  0  0  0  0  0  0  0  0  0  0
    7.6392   10.9461   25.4480 C   0  0  0  0  0  0  0  0  0  0  0  0
    6.5772   10.5112   26.2759 C   0  0  0  0  0  0  0  0  0  0  0  0
  1  2  1  0
  2  3  2  0
  3  4  1  0
  4  5  1  0
  4  6  2  0
  6  7  1  0
  7  8  1  0
  8  9  2  0
  8 10  1  0
 10 11  1  0
 11 12  1  0
 12 13  2  0
 13 14  1  0
 14 15  1  0
 15 16  1  0
 16 17  1  0
 16 18  1  0
 16 19  1  0
 14 20  2  0
 20 21  1  0
  7 22  2  0
 22 23  1  0
 23 24  1  0
 24 25  1  0
 25 26  1  0
 23 27  2  0
 27 28  1  0
 28 29  2  0
 29  2  1  0
 28  6  1  0
 21 12  1  0
 26 24  1  0
M  END
>  <cnnaffinity>  (95) 
-6.22434

>  <cnnaffinityIC50>  (95) 
596.5680631500929 nanomolar

>  <smiles>  (95) 
CC1=CC(C)=C2C(C(=O)OCC3=NC(CC(F)(F)F)=NO3)=CC(C3CC3)=NC2=C1 Z1355374184

>  <ref_pdb>  (95) 
Ax0310a

>  <ref_mols>  (95) 
Ax1097a,Ax0739a

>  <rationale>  (95) 
Enamine real space elaborations around a merge of x1097 and x0739.

$$$$
Z1355138775
     RDKit          3D

 31 35  0  0  0  0  0  0  0  0999 V2000
    4.9327   10.6975   27.7752 C   0  0  0  0  0  0  0  0  0  0  0  0
    5.9908   11.2611   26.8588 C   0  0  0  0  0  0  0  0  0  0  0  0
    6.2814   12.6449   26.8752 C   0  0  0  0  0  0  0  0  0  0  0  0
    7.2538   13.2170   26.0891 C   0  0  0  0  0  0  0  0  0  0  0  0
    7.4124   14.7166   26.1697 C   0  0  0  0  0  0  0  0  0  0  0  0
    8.0352   12.3560   25.2475 C   0  0  0  0  0  0  0  0  0  0  0  0
    9.1358   12.7597   24.4469 C   0  0  0  0  0  0  0  0  0  0  0  0
    9.7091   14.1239   24.4527 C   0  0  0  0  0  0  0  0  0  0  0  0
    9.2372   14.9586   23.7083 O   0  0  0  0  0  0  0  0  0  0  0  0
   10.7478   14.2860   25.3156 N   0  0  0  0  0  0  0  0  0  0  0  0
   11.3463   15.5497   25.7004 C   0  0  0  0  0  0  0  0  0  0  0  0
   11.9710   15.4309   27.0742 C   0  0  0  0  0  0  0  0  0  0  0  0
   11.3034   15.7694   28.2520 C   0  0  0  0  0  0  0  0  0  0  0  0
   11.9511   15.6899   29.4766 C   0  0  0  0  0  0  0  0  0  0  0  0
   13.2792   15.2455   29.4929 C   0  0  0  0  0  0  0  0  0  0  0  0
   14.0974   15.2804   30.6501 N   0  0  0  0  0  0  0  0  0  0  0  0
   15.4738   15.4921   30.6022 C   0  0  0  0  0  0  0  0  0  0  0  0
   15.8732   15.6626   31.8886 C   0  0  0  0  0  0  0  0  0  0  0  0
   14.8033   15.5326   32.7485 N   0  0  0  0  0  0  0  0  0  0  0  0
   13.7599   15.3131   31.9960 C   0  0  0  0  0  0  0  0  0  0  0  0
   12.3942   15.0997   32.5600 C   0  0  0  0  0  0  0  0  0  0  0  0
   13.9023   14.8203   28.3924 N   0  0  0  0  0  0  0  0  0  0  0  0
   13.2678   14.9449   27.2284 C   0  0  0  0  0  0  0  0  0  0  0  0
    9.6849   11.8950   23.5483 C   0  0  0  0  0  0  0  0  0  0  0  0
    9.3018   10.5440   23.5594 C   0  0  0  0  0  0  0  0  0  0  0  0
   10.1034    9.6612   22.6699 C   0  0  0  0  0  0  0  0  0  0  0  0
   11.4701    9.2334   23.1767 C   0  0  0  0  0  0  0  0  0  0  0  0
   10.3428    8.2783   23.1318 C   0  0  0  0  0  0  0  0  0  0  0  0
    8.3748   10.0833   24.3652 N   0  0  0  0  0  0  0  0  0  0  0  0
    7.7140   10.9674   25.1731 C   0  0  0  0  0  0  0  0  0  0  0  0
    6.6815   10.4602   25.9937 C   0  0  0  0  0  0  0  0  0  0  0  0
  1  2  1  0
  2  3  2  0
  3  4  1  0
  4  5  1  0
  4  6  2  0
  6  7  1  0
  7  8  1  0
  8  9  2  0
  8 10  1  0
 10 11  1  0
 11 12  1  0
 12 13  2  0
 13 14  1  0
 14 15  2  0
 15 16  1  0
 16 17  1  0
 17 18  2  0
 18 19  1  0
 19 20  2  0
 20 21  1  0
 15 22  1  0
 22 23  2  0
  7 24  2  0
 24 25  1  0
 25 26  1  0
 26 27  1  0
 27 28  1  0
 25 29  2  0
 29 30  1  0
 30 31  2  0
 31  2  1  0
 30  6  1  0
 23 12  1  0
 28 26  1  0
 20 16  1  0
M  END
>  <cnnaffinity>  (96) 
-6.2221

>  <cnnaffinityIC50>  (96) 
599.652985155335 nanomolar

>  <smiles>  (96) 
CC1=CC(C)=C2C(C(=O)NCC3=CC=C(N4C=CN=C4C)N=C3)=CC(C3CC3)=NC2=C1 Z1355138775

>  <ref_pdb>  (96) 
Ax0310a

>  <ref_mols>  (96) 
Ax1097a,Ax0739a

>  <rationale>  (96) 
Enamine real space elaborations around a merge of x1097 and x0739.

$$$$
Z2874108565
     RDKit          3D

 27 30  0  0  0  0  0  0  0  0999 V2000
    4.8415   10.7451   27.5885 C   0  0  0  0  0  0  0  0  0  0  0  0
    5.9682   11.1398   26.6696 C   0  0  0  0  0  0  0  0  0  0  0  0
    6.5047   12.4467   26.7591 C   0  0  0  0  0  0  0  0  0  0  0  0
    7.5284   12.8856   25.9609 C   0  0  0  0  0  0  0  0  0  0  0  0
    8.0040   14.3118   26.1099 C   0  0  0  0  0  0  0  0  0  0  0  0
    8.0811   11.9568   25.0299 C   0  0  0  0  0  0  0  0  0  0  0  0
    9.0649   12.2749   24.0737 C   0  0  0  0  0  0  0  0  0  0  0  0
   10.0980   13.3104   24.2007 C   0  0  0  0  0  0  0  0  0  0  0  0
   10.9791   13.3200   25.0316 O   0  0  0  0  0  0  0  0  0  0  0  0
    9.9784   14.2197   23.1877 N   0  0  0  0  0  0  0  0  0  0  0  0
   10.9326   15.1707   22.8944 C   0  0  0  0  0  0  0  0  0  0  0  0
   11.2203   15.6763   21.6333 C   0  0  0  0  0  0  0  0  0  0  0  0
   10.8307   15.1152   20.3841 C   0  0  0  0  0  0  0  0  0  0  0  0
   10.5087   14.6287   19.3827 N   0  0  0  0  0  0  0  0  0  0  0  0
   11.9839   16.8266   21.9147 C   0  0  0  0  0  0  0  0  0  0  0  0
   12.4779   17.9168   21.0591 C   0  0  0  0  0  0  0  0  0  0  0  0
   12.1824   16.9635   23.2012 N   0  0  0  0  0  0  0  0  0  0  0  0
   11.5701   15.9252   23.8055 N   0  0  0  0  0  0  0  0  0  0  0  0
   11.6781   15.8620   25.2574 C   0  0  0  0  0  0  0  0  0  0  0  0
    9.2544   11.4496   23.0036 C   0  0  0  0  0  0  0  0  0  0  0  0
    8.9461   10.0910   23.1606 C   0  0  0  0  0  0  0  0  0  0  0  0
    9.7455    9.1648   22.2961 C   0  0  0  0  0  0  0  0  0  0  0  0
   10.5684    8.1893   23.0578 C   0  0  0  0  0  0  0  0  0  0  0  0
   11.2301    9.3781   22.4662 C   0  0  0  0  0  0  0  0  0  0  0  0
    8.1718    9.6748   24.1396 N   0  0  0  0  0  0  0  0  0  0  0  0
    7.5923   10.6193   24.9492 C   0  0  0  0  0  0  0  0  0  0  0  0
    6.5002   10.2575   25.7692 C   0  0  0  0  0  0  0  0  0  0  0  0
  1  2  1  0
  2  3  2  0
  3  4  1  0
  4  5  1  0
  4  6  2  0
  6  7  1  0
  7  8  1  0
  8  9  2  0
  8 10  1  0
 10 11  1  0
 11 12  2  0
 12 13  1  0
 13 14  3  0
 12 15  1  0
 15 16  1  0
 15 17  2  0
 17 18  1  0
 18 19  1  0
  7 20  2  0
 20 21  1  0
 21 22  1  0
 22 23  1  0
 23 24  1  0
 21 25  2  0
 25 26  1  0
 26 27  2  0
 27  2  1  0
 26  6  1  0
 18 11  1  0
 24 22  1  0
M  END
>  <cnnaffinity>  (97) 
-6.21945

>  <cnnaffinityIC50>  (97) 
603.3231640745115 nanomolar

>  <smiles>  (97) 
CC1=CC(C)=C2C(C(=O)NC3=C(C#N)C(C)=NN3C)=CC(C3CC3)=NC2=C1 Z2874108565

>  <ref_pdb>  (97) 
Ax0310a

>  <ref_mols>  (97) 
Ax1097a,Ax0739a

>  <rationale>  (97) 
Enamine real space elaborations around a merge of x1097 and x0739.

$$$$
Z2720830794
     RDKit          3D

 26 28  0  0  0  0  0  0  0  0999 V2000
   11.9590   13.9721   24.2874 C   0  0  0  0  0  0  0  0  0  0  0  0
   11.1714   13.4698   23.0800 C   0  0  2  0  0  0  0  0  0  0  0  0
   10.7603   12.1159   23.2398 O   0  0  0  0  0  0  0  0  0  0  0  0
    9.6740   11.8762   24.0162 C   0  0  0  0  0  0  0  0  0  0  0  0
    9.2780   10.5092   24.1194 C   0  0  0  0  0  0  0  0  0  0  0  0
    8.2664   10.0902   24.8278 N   0  0  0  0  0  0  0  0  0  0  0  0
    7.5487   11.0210   25.5297 C   0  0  0  0  0  0  0  0  0  0  0  0
    6.4556   10.5813   26.3168 C   0  0  0  0  0  0  0  0  0  0  0  0
    5.7310   11.4783   27.0556 C   0  0  0  0  0  0  0  0  0  0  0  0
    6.0533   12.8569   27.0344 C   0  0  0  0  0  0  0  0  0  0  0  0
    7.0961   13.3061   26.2683 C   0  0  0  0  0  0  0  0  0  0  0  0
    7.8623   12.3982   25.4953 C   0  0  0  0  0  0  0  0  0  0  0  0
    8.9495   12.8208   24.6914 C   0  0  0  0  0  0  0  0  0  0  0  0
   12.0986   13.4671   21.8720 C   0  0  0  0  0  0  0  0  0  0  0  0
   13.0585   12.7312   21.8281 O   0  0  0  0  0  0  0  0  0  0  0  0
   11.8347   14.3914   20.8946 N   0  0  0  0  0  0  0  0  0  0  0  0
   11.5888   15.7777   21.2351 C   0  0  0  0  0  0  0  0  0  0  0  0
   10.4969   16.3071   20.3339 C   0  0  0  0  0  0  0  0  0  0  0  0
   10.4805   15.7183   18.9150 C   0  0  0  0  0  0  0  0  0  0  0  0
   10.3045   16.8475   17.9696 N   0  0  0  0  0  0  0  0  0  0  0  0
    8.8246   17.5842   17.8098 S   0  0  0  0  0  6  0  0  0  0  0  0
    7.9841   17.4038   19.2441 N   0  0  0  0  0  0  0  0  0  0  0  0
    8.0761   16.8286   16.8344 O   0  0  0  0  0  0  0  0  0  0  0  0
    9.1015   18.9987   17.6519 O   0  0  0  0  0  0  0  0  0  0  0  0
   11.7492   14.9389   18.4960 C   0  0  0  0  0  0  0  0  0  0  0  0
   12.5382   14.2576   19.6315 C   0  0  0  0  0  0  0  0  0  0  0  0
  2  1  1  1
  2  3  1  0
  3  4  1  0
  4  5  2  0
  5  6  1  0
  6  7  2  0
  7  8  1  0
  8  9  2  0
  9 10  1  0
 10 11  2  0
 11 12  1  0
 12 13  2  0
  2 14  1  0
 14 15  2  0
 14 16  1  0
 16 17  1  0
 17 18  1  0
 18 19  1  0
 19 20  1  0
 20 21  1  0
 21 22  1  0
 21 23  2  0
 21 24  2  0
 19 25  1  0
 25 26  1  0
 13  4  1  0
 26 16  1  0
 12  7  1  0
M  END
>  <cnnaffinity>  (98) 
-6.1348

>  <cnnaffinityIC50>  (98) 
733.1620890272109 nanomolar

>  <smiles>  (98) 
C[C@H](OC1=CN=C2C=CC=CC2=C1)C(=O)N1CCC(NS(N)(=O)=O)CC1 Z2720830794

>  <ref_pdb>  (98) 
Ax0310a

>  <ref_mols>  (98) 
Ax1097a,Ax0922a

>  <rationale>  (98) 
Enamine real space elaborations around a merge of x1097 and x0922.

$$$$
Z1962480676
     RDKit          3D

 26 28  0  0  0  0  0  0  0  0999 V2000
   13.1811   12.9632   22.6765 C   0  0  0  0  0  0  0  0  0  0  0  0
   11.8027   12.9207   23.3487 C   0  0  2  0  0  0  0  0  0  0  0  0
   11.2188   11.5961   23.2801 O   0  0  0  0  0  0  0  0  0  0  0  0
   10.0233   11.4255   23.9631 C   0  0  0  0  0  0  0  0  0  0  0  0
    9.4828   10.1321   24.1055 C   0  0  0  0  0  0  0  0  0  0  0  0
    8.3668    9.8569   24.8123 N   0  0  0  0  0  0  0  0  0  0  0  0
    7.7301   10.8776   25.4170 C   0  0  0  0  0  0  0  0  0  0  0  0
    6.6008   10.6039   26.1929 C   0  0  0  0  0  0  0  0  0  0  0  0
    5.9191   11.6273   26.8671 C   0  0  0  0  0  0  0  0  0  0  0  0
    6.3555   12.9495   26.7373 C   0  0  0  0  0  0  0  0  0  0  0  0
    7.4799   13.2466   25.9593 C   0  0  0  0  0  0  0  0  0  0  0  0
    8.1811   12.2138   25.3152 C   0  0  0  0  0  0  0  0  0  0  0  0
    9.3434   12.4815   24.5902 C   0  0  0  0  0  0  0  0  0  0  0  0
   10.8907   13.9368   22.6484 C   0  0  0  0  0  0  0  0  0  0  0  0
   10.4592   14.9047   23.2558 O   0  0  0  0  0  0  0  0  0  0  0  0
   10.5156   13.7663   21.3517 N   0  0  0  0  0  0  0  0  0  0  0  0
    9.0656   14.5043   21.0129 S   0  0  0  0  0  6  0  0  0  0  0  0
    8.3385   14.8905   22.2194 O   0  0  0  0  0  0  0  0  0  0  0  0
    8.2764   13.6193   20.1888 O   0  0  0  0  0  0  0  0  0  0  0  0
    9.5396   15.7726   19.9321 C   0  0  0  0  0  0  0  0  0  0  0  0
   10.5472   15.3684   19.0878 C   0  0  0  0  0  0  0  0  0  0  0  0
   10.8315   16.0687   18.0026 N   0  0  0  0  0  0  0  0  0  0  0  0
   10.1112   17.1684   17.7432 C   0  0  0  0  0  0  0  0  0  0  0  0
    9.0953   17.6215   18.5936 C   0  0  0  0  0  0  0  0  0  0  0  0
    8.1393   19.2167   18.2763 Br  0  0  0  0  0  0  0  0  0  0  0  0
    8.7822   16.9078   19.7242 C   0  0  0  0  0  0  0  0  0  0  0  0
  2  1  1  6
  2  3  1  0
  3  4  1  0
  4  5  2  0
  5  6  1  0
  6  7  2  0
  7  8  1  0
  8  9  2  0
  9 10  1  0
 10 11  2  0
 11 12  1  0
 12 13  2  0
  2 14  1  0
 14 15  2  0
 14 16  1  0
 16 17  1  0
 17 18  2  0
 17 19  2  0
 17 20  1  0
 20 21  2  0
 21 22  1  0
 22 23  2  0
 23 24  1  0
 24 25  1  0
 24 26  2  0
 13  4  1  0
 26 20  1  0
 12  7  1  0
M  END
>  <cnnaffinity>  (99) 
-6.12086

>  <cnnaffinityIC50>  (99) 
757.0769084490531 nanomolar

>  <smiles>  (99) 
C[C@H](OC1=CN=C2C=CC=CC2=C1)C(=O)NS(=O)(=O)C1=CN=CC(Br)=C1 Z1962480676

>  <ref_pdb>  (99) 
Ax0310a

>  <ref_mols>  (99) 
Ax1097a,Ax0922a

>  <rationale>  (99) 
Enamine real space elaborations around a merge of x1097 and x0922.

$$$$
PV-003443640447
     RDKit          3D

 25 28  0  0  0  0  0  0  0  0999 V2000
   12.2784   13.7148   24.7162 C   0  0  0  0  0  0  0  0  0  0  0  0
   11.5092   13.4771   23.4515 C   0  0  2  0  0  0  0  0  0  0  0  0
   10.9816   12.1462   23.3675 O   0  0  0  0  0  0  0  0  0  0  0  0
    9.8282   11.8870   24.0245 C   0  0  0  0  0  0  0  0  0  0  0  0
    9.4139   10.5229   24.0557 C   0  0  0  0  0  0  0  0  0  0  0  0
    8.3734   10.0857   24.7133 N   0  0  0  0  0  0  0  0  0  0  0  0
    7.6431   10.9958   25.4297 C   0  0  0  0  0  0  0  0  0  0  0  0
    6.5525   10.5458   26.2169 C   0  0  0  0  0  0  0  0  0  0  0  0
    5.8326   11.4303   26.9772 C   0  0  0  0  0  0  0  0  0  0  0  0
    6.1437   12.8113   26.9671 C   0  0  0  0  0  0  0  0  0  0  0  0
    7.1752   13.2723   26.1938 C   0  0  0  0  0  0  0  0  0  0  0  0
    7.9456   12.3753   25.4159 C   0  0  0  0  0  0  0  0  0  0  0  0
    9.0449   12.8188   24.6458 C   0  0  0  0  0  0  0  0  0  0  0  0
   12.3926   13.5892   22.2332 C   0  0  0  0  0  0  0  0  0  0  0  0
   13.4884   13.0739   22.2421 O   0  0  0  0  0  0  0  0  0  0  0  0
   11.9265   14.3192   21.1338 N   0  0  0  0  0  0  0  0  0  0  0  0
   12.9129   14.8729   20.2097 C   0  0  0  0  0  0  0  0  0  0  0  0
   12.5021   14.6326   18.7714 C   0  0  0  0  0  0  0  0  0  0  0  0
   11.2144   15.2844   18.5695 N   0  0  0  0  0  0  0  0  0  0  0  0
   10.2485   14.8508   19.4908 C   0  0  0  0  0  0  0  0  0  0  0  0
    8.9045   14.8076   19.2153 C   0  0  0  0  0  0  0  0  0  0  0  0
    7.9876   14.3004   20.0504 N   0  0  0  0  0  0  0  0  0  0  0  0
    8.4188   13.9330   21.2363 C   0  0  0  0  0  0  0  0  0  0  0  0
    9.6736   13.9776   21.6491 N   0  0  0  0  0  0  0  0  0  0  0  0
   10.5922   14.3921   20.7790 C   0  0  0  0  0  0  0  0  0  0  0  0
  2  1  1  1
  2  3  1  0
  3  4  1  0
  4  5  2  0
  5  6  1  0
  6  7  2  0
  7  8  1  0
  8  9  2  0
  9 10  1  0
 10 11  2  0
 11 12  1  0
 12 13  2  0
  2 14  1  0
 14 15  2  0
 14 16  1  0
 16 17  1  0
 17 18  1  0
 18 19  1  0
 19 20  1  0
 20 21  2  0
 21 22  1  0
 22 23  2  0
 23 24  1  0
 24 25  2  0
 13  4  1  0
 25 16  1  0
 12  7  1  0
 25 20  1  0
M  END
>  <cnnaffinity>  (100) 
-6.08172

>  <cnnaffinityIC50>  (100) 
828.4761298637156 nanomolar

>  <smiles>  (100) 
C[C@H](OC1=CN=C2C=CC=CC2=C1)C(=O)N1CCNC2=CN=CN=C21 PV-003443640447

>  <ref_pdb>  (100) 
Ax0310a

>  <ref_mols>  (100) 
Ax1097a,Ax0922a

>  <rationale>  (100) 
Enamine real space elaborations around a merge of x1097 and x0922.

$$$$
Z1962934503
     RDKit          3D

 25 26  0  0  0  0  0  0  0  0999 V2000
   13.0836   13.1159   22.6333 C   0  0  0  0  0  0  0  0  0  0  0  0
   11.7120   13.2301   23.2769 C   0  0  2  0  0  0  0  0  0  0  0  0
   11.0636   11.9580   23.2124 O   0  0  0  0  0  0  0  0  0  0  0  0
    9.9457   11.7649   23.9758 C   0  0  0  0  0  0  0  0  0  0  0  0
    9.4945   10.4130   24.0810 C   0  0  0  0  0  0  0  0  0  0  0  0
    8.4523   10.0361   24.7709 N   0  0  0  0  0  0  0  0  0  0  0  0
    7.7514   10.9989   25.4461 C   0  0  0  0  0  0  0  0  0  0  0  0
    6.6235   10.6086   26.2143 C   0  0  0  0  0  0  0  0  0  0  0  0
    5.9042   11.5415   26.9142 C   0  0  0  0  0  0  0  0  0  0  0  0
    6.2727   12.9081   26.8730 C   0  0  0  0  0  0  0  0  0  0  0  0
    7.3541   13.3075   26.1329 C   0  0  0  0  0  0  0  0  0  0  0  0
    8.1168   12.3631   25.4007 C   0  0  0  0  0  0  0  0  0  0  0  0
    9.2466   12.7439   24.6282 C   0  0  0  0  0  0  0  0  0  0  0  0
   10.9261   14.3058   22.5387 C   0  0  0  0  0  0  0  0  0  0  0  0
   10.9686   15.4745   22.8564 O   0  0  0  0  0  0  0  0  0  0  0  0
   10.2354   13.8273   21.4427 N   0  0  0  0  0  0  0  0  0  0  0  0
    9.0375   14.7279   20.6993 S   0  0  0  0  0  6  0  0  0  0  0  0
    8.5194   13.9059   19.6363 O   0  0  0  0  0  0  0  0  0  0  0  0
    8.0919   15.1586   21.7062 O   0  0  0  0  0  0  0  0  0  0  0  0
    9.9862   16.0583   19.9106 C   0  0  0  0  0  0  0  0  0  0  0  0
   10.2762   15.7473   18.4070 C   0  0  0  0  0  0  0  0  0  0  0  0
   10.9066   16.9048   17.5827 C   0  0  0  0  0  0  0  0  0  0  0  0
   11.1893   14.5290   18.2230 C   0  0  0  0  0  0  0  0  0  0  0  0
    8.9315   15.8119   17.8232 C   0  0  0  0  0  0  0  0  0  0  0  0
    7.9877   16.3506   17.4342 N   0  0  0  0  0  0  0  0  0  0  0  0
  2  1  1  6
  2  3  1  0
  3  4  1  0
  4  5  2  0
  5  6  1  0
  6  7  2  0
  7  8  1  0
  8  9  2  0
  9 10  1  0
 10 11  2  0
 11 12  1  0
 12 13  2  0
  2 14  1  0
 14 15  2  0
 14 16  1  0
 16 17  1  0
 17 18  2  0
 17 19  2  0
 17 20  1  0
 20 21  1  0
 21 22  1  0
 21 23  1  0
 21 24  1  0
 24 25  3  0
 13  4  1  0
 12  7  1  0
M  END
>  <cnnaffinity>  (101) 
-6.01395

>  <cnnaffinityIC50>  (101) 
968.389339786518 nanomolar

>  <smiles>  (101) 
C[C@H](OC1=CN=C2C=CC=CC2=C1)C(=O)NS(=O)(=O)CC(C)(C)C#N Z1962934503

>  <ref_pdb>  (101) 
Ax0310a

>  <ref_mols>  (101) 
Ax1097a,Ax0922a

>  <rationale>  (101) 
Enamine real space elaborations around a merge of x1097 and x0922.

$$$$
PV-003719802724
     RDKit          3D

 25 27  0  0  0  0  0  0  0  0999 V2000
   12.0184   13.9896   24.2737 C   0  0  0  0  0  0  0  0  0  0  0  0
   11.1984   13.5990   23.0471 C   0  0  2  0  0  0  0  0  0  0  0  0
   10.7337   12.2538   23.1472 O   0  0  0  0  0  0  0  0  0  0  0  0
    9.6815   11.9858   23.9578 C   0  0  0  0  0  0  0  0  0  0  0  0
    9.3174   10.6077   24.0455 C   0  0  0  0  0  0  0  0  0  0  0  0
    8.3288   10.1514   24.7640 N   0  0  0  0  0  0  0  0  0  0  0  0
    7.5994   11.0538   25.4911 C   0  0  0  0  0  0  0  0  0  0  0  0
    6.5206   10.5827   26.2813 C   0  0  0  0  0  0  0  0  0  0  0  0
    5.7823   11.4571   27.0345 C   0  0  0  0  0  0  0  0  0  0  0  0
    6.0835   12.8401   27.0343 C   0  0  0  0  0  0  0  0  0  0  0  0
    7.1149   13.3159   26.2699 C   0  0  0  0  0  0  0  0  0  0  0  0
    7.8888   12.4363   25.4765 C   0  0  0  0  0  0  0  0  0  0  0  0
    8.9561   12.9015   24.6677 C   0  0  0  0  0  0  0  0  0  0  0  0
   12.0776   13.5842   21.7958 C   0  0  0  0  0  0  0  0  0  0  0  0
   12.9437   12.7480   21.6742 O   0  0  0  0  0  0  0  0  0  0  0  0
   11.8508   14.5503   20.8516 N   0  0  0  0  0  0  0  0  0  0  0  0
   12.4075   14.3860   19.5191 C   0  0  0  0  0  0  0  0  0  0  0  0
   11.5344   15.0780   18.4418 C   0  0  0  0  0  0  0  0  0  0  0  0
   10.2592   15.7739   18.9531 C   0  0  0  0  0  0  0  0  0  0  0  0
    9.1705   14.8007   19.0748 N   0  0  0  0  0  0  0  0  0  0  0  0
    9.8622   16.9511   18.0243 C   0  0  0  0  0  0  0  0  0  0  0  0
    8.6332   17.5109   18.3211 N   0  0  0  0  0  0  0  0  0  0  0  0
   10.5610   17.4014   17.1386 O   0  0  0  0  0  0  0  0  0  0  0  0
   10.4436   16.4294   20.3278 C   0  0  0  0  0  0  0  0  0  0  0  0
   11.5946   15.9306   21.1851 C   0  0  0  0  0  0  0  0  0  0  0  0
  2  1  1  1
  2  3  1  0
  3  4  1  0
  4  5  2  0
  5  6  1  0
  6  7  2  0
  7  8  1  0
  8  9  2  0
  9 10  1  0
 10 11  2  0
 11 12  1  0
 12 13  2  0
  2 14  1  0
 14 15  2  0
 14 16  1  0
 16 17  1  0
 17 18  1  0
 18 19  1  0
 19 20  1  0
 19 21  1  0
 21 22  1  0
 21 23  2  0
 19 24  1  0
 24 25  1  0
 13  4  1  0
 25 16  1  0
 12  7  1  0
M  END
>  <cnnaffinity>  (102) 
-6.01054

>  <cnnaffinityIC50>  (102) 
976.0228832606103 nanomolar

>  <smiles>  (102) 
C[C@H](OC1=CN=C2C=CC=CC2=C1)C(=O)N1CCC(N)(C(N)=O)CC1 PV-003719802724

>  <ref_pdb>  (102) 
Ax0310a

>  <ref_mols>  (102) 
Ax1097a,Ax0922a

>  <rationale>  (102) 
Enamine real space elaborations around a merge of x1097 and x0922.

$$$$
Z1941884464
     RDKit          3D

 26 28  0  0  0  0  0  0  0  0999 V2000
   11.9521   13.8086   24.2980 C   0  0  0  0  0  0  0  0  0  0  0  0
   11.1783   13.3576   23.0592 C   0  0  2  0  0  0  0  0  0  0  0  0
   10.7242   12.0085   23.1813 O   0  0  0  0  0  0  0  0  0  0  0  0
    9.6577   11.7777   23.9939 C   0  0  0  0  0  0  0  0  0  0  0  0
    9.2578   10.4125   24.1258 C   0  0  0  0  0  0  0  0  0  0  0  0
    8.2503   10.0075   24.8509 N   0  0  0  0  0  0  0  0  0  0  0  0
    7.5370   10.9479   25.5452 C   0  0  0  0  0  0  0  0  0  0  0  0
    6.4411   10.5290   26.3442 C   0  0  0  0  0  0  0  0  0  0  0  0
    5.7274   11.4433   27.0737 C   0  0  0  0  0  0  0  0  0  0  0  0
    6.0675   12.8166   27.0357 C   0  0  0  0  0  0  0  0  0  0  0  0
    7.1106   13.2446   26.2581 C   0  0  0  0  0  0  0  0  0  0  0  0
    7.8626   12.3212   25.4905 C   0  0  0  0  0  0  0  0  0  0  0  0
    8.9442   12.7309   24.6701 C   0  0  0  0  0  0  0  0  0  0  0  0
   12.1474   13.3827   21.8749 C   0  0  0  0  0  0  0  0  0  0  0  0
   13.2492   12.9011   21.9640 O   0  0  0  0  0  0  0  0  0  0  0  0
   11.7411   14.1546   20.7257 N   0  0  0  0  0  0  0  0  0  0  0  0
   12.6497   13.9734   19.5253 C   0  0  0  0  0  0  0  0  0  0  0  0
   12.1225   14.8170   18.3622 C   0  0  0  0  0  0  0  0  0  0  0  0
   10.7495   15.4398   18.6162 C   0  0  0  0  0  0  0  0  0  0  0  0
   10.5624   16.2039   20.0060 C   0  0  1  0  0  0  0  0  0  0  0  0
    9.2536   16.0758   20.4838 C   0  0  0  0  0  0  0  0  0  0  0  0
    8.0525   17.2008   19.9863 S   0  0  0  0  0  6  0  0  0  0  0  0
    8.4407   18.7923   20.3522 N   0  0  0  0  0  0  0  0  0  0  0  0
    6.9936   16.8063   20.8906 O   0  0  0  0  0  0  0  0  0  0  0  0
    7.9908   17.2061   18.5284 O   0  0  0  0  0  0  0  0  0  0  0  0
   11.6546   15.6716   20.9797 C   0  0  0  0  0  0  0  0  0  0  0  0
  2  1  1  1
  2  3  1  0
  3  4  1  0
  4  5  2  0
  5  6  1  0
  6  7  2  0
  7  8  1  0
  8  9  2  0
  9 10  1  0
 10 11  2  0
 11 12  1  0
 12 13  2  0
  2 14  1  0
 14 15  2  0
 14 16  1  0
 16 17  1  0
 17 18  1  0
 18 19  1  0
 19 20  1  0
 20 21  1  1
 21 22  1  0
 22 23  1  0
 22 24  2  0
 22 25  2  0
 20 26  1  0
 13  4  1  0
 26 16  1  0
 12  7  1  0
M  END
>  <cnnaffinity>  (103) 
-6.00663

>  <cnnaffinityIC50>  (103) 
984.8497976171691 nanomolar

>  <smiles>  (103) 
C[C@H](OC1=CN=C2C=CC=CC2=C1)C(=O)N1CCCC(CS(N)(=O)=O)C1 Z1941884464

>  <ref_pdb>  (103) 
Ax0310a

>  <ref_mols>  (103) 
Ax1097a,Ax0922a

>  <rationale>  (103) 
Enamine real space elaborations around a merge of x1097 and x0922.

$$$$
Z3715991847
     RDKit          3D

 26 29  0  0  0  0  0  0  0  0999 V2000
    8.1390   17.7305   16.4554 C   0  0  0  0  0  0  0  0  0  0  0  0
    8.9786   16.7719   17.2296 C   0  0  0  0  0  0  0  0  0  0  0  0
    8.4630   15.6876   17.6374 N   0  0  0  0  0  0  0  0  0  0  0  0
    9.3565   14.9801   18.4066 O   0  0  0  0  0  0  0  0  0  0  0  0
   10.5388   15.7732   18.6855 C   0  0  0  0  0  0  0  0  0  0  0  0
   10.3910   16.2860   20.1286 C   0  0  0  0  0  0  0  0  0  0  0  0
   11.4836   15.8254   21.0833 C   0  0  0  0  0  0  0  0  0  0  0  0
   11.7847   14.4226   20.8295 N   0  0  0  0  0  0  0  0  0  0  0  0
   12.1076   13.5586   21.8538 C   0  0  0  0  0  0  0  0  0  0  0  0
   13.0643   12.8180   21.8005 O   0  0  0  0  0  0  0  0  0  0  0  0
   11.2229   13.5494   23.0994 C   0  0  2  0  0  0  0  0  0  0  0  0
   12.0392   13.9179   24.3351 C   0  0  0  0  0  0  0  0  0  0  0  0
   10.7556   12.2020   23.1773 O   0  0  0  0  0  0  0  0  0  0  0  0
    9.6969   11.9375   23.9791 C   0  0  0  0  0  0  0  0  0  0  0  0
    9.3231   10.5631   24.0648 C   0  0  0  0  0  0  0  0  0  0  0  0
    8.3258   10.1170   24.7778 N   0  0  0  0  0  0  0  0  0  0  0  0
    7.5984   11.0253   25.4987 C   0  0  0  0  0  0  0  0  0  0  0  0
    6.5147   10.5637   26.2874 C   0  0  0  0  0  0  0  0  0  0  0  0
    5.7775   11.4404   27.0390 C   0  0  0  0  0  0  0  0  0  0  0  0
    6.0830   12.8235   27.0331 C   0  0  0  0  0  0  0  0  0  0  0  0
    7.1180   13.2931   26.2691 C   0  0  0  0  0  0  0  0  0  0  0  0
    7.8927   12.4069   25.4829 C   0  0  0  0  0  0  0  0  0  0  0  0
    8.9697   12.8605   24.6815 C   0  0  0  0  0  0  0  0  0  0  0  0
   12.4901   14.2256   19.5708 C   0  0  0  0  0  0  0  0  0  0  0  0
   11.7652   14.8886   18.3875 C   0  0  0  0  0  0  0  0  0  0  0  0
   10.4118   16.9076   17.6444 C   0  0  0  0  0  0  0  0  0  0  0  0
  1  2  1  0
  2  3  2  0
  3  4  1  0
  4  5  1  0
  5  6  1  0
  6  7  1  0
  7  8  1  0
  8  9  1  0
  9 10  2  0
  9 11  1  0
 11 12  1  1
 11 13  1  0
 13 14  1  0
 14 15  2  0
 15 16  1  0
 16 17  2  0
 17 18  1  0
 18 19  2  0
 19 20  1  0
 20 21  2  0
 21 22  1  0
 22 23  2  0
  8 24  1  0
 24 25  1  0
  5 26  1  0
 26  2  1  0
 25  5  1  0
 23 14  1  0
 22 17  1  0
M  END
>  <cnnaffinity>  (104) 
-6.00069

>  <cnnaffinityIC50>  (104) 
998.4124777345353 nanomolar

>  <smiles>  (104) 
CC1=NOC2(CCN(C(=O)[C@H](C)OC3=CN=C4C=CC=CC4=C3)CC2)C1 Z3715991847

>  <ref_pdb>  (104) 
Ax0310a

>  <ref_mols>  (104) 
Ax1097a,Ax0922a

>  <rationale>  (104) 
Enamine real space elaborations around a merge of x1097 and x0922.

$$$$
Z2054438294
     RDKit          3D

 26 28  0  0  0  0  0  0  0  0999 V2000
   11.9918   14.1050   24.5486 C   0  0  0  0  0  0  0  0  0  0  0  0
   11.2271   13.5703   23.3422 C   0  0  2  0  0  0  0  0  0  0  0  0
   10.8540   12.2105   23.5129 O   0  0  0  0  0  0  0  0  0  0  0  0
    9.7202   11.9600   24.2161 C   0  0  0  0  0  0  0  0  0  0  0  0
    9.3324   10.5902   24.2637 C   0  0  0  0  0  0  0  0  0  0  0  0
    8.2877   10.1429   24.9041 N   0  0  0  0  0  0  0  0  0  0  0  0
    7.5151   11.0508   25.5766 C   0  0  0  0  0  0  0  0  0  0  0  0
    6.3838   10.5819   26.2914 C   0  0  0  0  0  0  0  0  0  0  0  0
    5.5833   11.4584   26.9769 C   0  0  0  0  0  0  0  0  0  0  0  0
    5.8770   12.8438   26.9855 C   0  0  0  0  0  0  0  0  0  0  0  0
    6.9673   13.3170   26.3036 C   0  0  0  0  0  0  0  0  0  0  0  0
    7.8082   12.4322   25.5817 C   0  0  0  0  0  0  0  0  0  0  0  0
    8.9433   12.8847   24.8613 C   0  0  0  0  0  0  0  0  0  0  0  0
   12.1273   13.5847   22.1039 C   0  0  0  0  0  0  0  0  0  0  0  0
   13.1311   12.9003   22.0741 O   0  0  0  0  0  0  0  0  0  0  0  0
   11.7828   14.4036   21.0578 N   0  0  0  0  0  0  0  0  0  0  0  0
   12.5924   14.1896   19.8670 C   0  0  0  0  0  0  0  0  0  0  0  0
   12.2517   14.9081   18.5677 C   0  0  0  0  0  0  0  0  0  0  0  0
   10.8787   15.4016   18.1219 C   0  0  0  0  0  0  0  0  0  0  0  0
    9.9801   16.2502   19.0187 C   0  0  1  0  0  0  0  0  0  0  0  0
    8.6624   16.5808   18.3156 C   0  0  0  0  0  0  0  0  0  0  0  0
    8.7256   17.7682   17.3877 C   0  0  0  0  0  0  0  0  0  0  0  0
    7.8675   17.7306   16.3296 N   0  0  0  0  0  0  0  0  0  0  0  0
    9.4456   18.7228   17.6121 O   0  0  0  0  0  0  0  0  0  0  0  0
    9.7449   15.6273   20.3880 C   0  0  0  0  0  0  0  0  0  0  0  0
   11.0127   15.6218   21.2388 C   0  0  0  0  0  0  0  0  0  0  0  0
  2  1  1  1
  2  3  1  0
  3  4  1  0
  4  5  2  0
  5  6  1  0
  6  7  2  0
  7  8  1  0
  8  9  2  0
  9 10  1  0
 10 11  2  0
 11 12  1  0
 12 13  2  0
  2 14  1  0
 14 15  2  0
 14 16  1  0
 16 17  1  0
 17 18  1  0
 18 19  1  0
 19 20  1  0
 20 21  1  6
 21 22  1  0
 22 23  1  0
 22 24  2  0
 20 25  1  0
 25 26  1  0
 13  4  1  0
 26 16  1  0
 12  7  1  0
M  END
>  <cnnaffinity>  (105) 
-5.93772

>  <cnnaffinityIC50>  (105) 
1154.197156397432 nanomolar

>  <smiles>  (105) 
C[C@H](OC1=CN=C2C=CC=CC2=C1)C(=O)N1CCCC(CC(N)=O)CC1 Z2054438294

>  <ref_pdb>  (105) 
Ax0310a

>  <ref_mols>  (105) 
Ax1097a,Ax0922a

>  <rationale>  (105) 
Enamine real space elaborations around a merge of x1097 and x0922.

$$$$
Z4188189473
     RDKit          3D

 24 25  0  0  0  0  0  0  0  0999 V2000
    9.6131   17.3105   16.8828 C   0  0  0  0  0  0  0  0  0  0  0  0
   10.0556   17.8182   17.5050 S   0  0  0  0  0  0  0  0  0  0  0  0
    8.6136   18.4000   18.8739 C   0  0  0  0  0  0  0  0  0  0  0  0
    8.2887   17.0132   19.2910 C   0  0  0  0  0  0  0  0  0  0  0  0
    9.4033   16.1360   19.8900 C   0  0  0  0  0  0  0  0  0  0  0  0
    8.6853   14.7533   20.7537 S   0  0  0  0  0  6  0  0  0  0  0  0
    8.1491   13.9017   19.7225 O   0  0  0  0  0  0  0  0  0  0  0  0
    7.8274   15.1251   21.8616 O   0  0  0  0  0  0  0  0  0  0  0  0
   10.0455   13.9447   21.3060 N   0  0  0  0  0  0  0  0  0  0  0  0
   10.8163   14.4186   22.3492 C   0  0  0  0  0  0  0  0  0  0  0  0
   10.9272   15.5907   22.6370 O   0  0  0  0  0  0  0  0  0  0  0  0
   11.5960   13.3419   23.0962 C   0  0  2  0  0  0  0  0  0  0  0  0
   12.9711   13.2023   22.4681 C   0  0  0  0  0  0  0  0  0  0  0  0
   10.9500   12.0729   23.0483 O   0  0  0  0  0  0  0  0  0  0  0  0
    9.8518   11.8787   23.8377 C   0  0  0  0  0  0  0  0  0  0  0  0
    9.4230   10.5241   23.9380 C   0  0  0  0  0  0  0  0  0  0  0  0
    8.4145   10.1239   24.6592 N   0  0  0  0  0  0  0  0  0  0  0  0
    7.7311   11.0704   25.3739 C   0  0  0  0  0  0  0  0  0  0  0  0
    6.6621   10.6423   26.2016 C   0  0  0  0  0  0  0  0  0  0  0  0
    5.9611   11.5464   26.9531 C   0  0  0  0  0  0  0  0  0  0  0  0
    6.2768   12.9260   26.8936 C   0  0  0  0  0  0  0  0  0  0  0  0
    7.2966   13.3653   26.0866 C   0  0  0  0  0  0  0  0  0  0  0  0
    8.0546   12.4454   25.3169 C   0  0  0  0  0  0  0  0  0  0  0  0
    9.1506   12.8489   24.5046 C   0  0  0  0  0  0  0  0  0  0  0  0
  1  2  1  0
  2  3  1  0
  3  4  1  0
  4  5  1  0
  5  6  1  0
  6  7  2  0
  6  8  2  0
  6  9  1  0
  9 10  1  0
 10 11  2  0
 10 12  1  0
 12 13  1  6
 12 14  1  0
 14 15  1  0
 15 16  2  0
 16 17  1  0
 17 18  2  0
 18 19  1  0
 19 20  2  0
 20 21  1  0
 21 22  2  0
 22 23  1  0
 23 24  2  0
 24 15  1  0
 23 18  1  0
M  END
>  <cnnaffinity>  (106) 
-5.92069

>  <cnnaffinityIC50>  (106) 
1200.3558130584815 nanomolar

>  <smiles>  (106) 
CSCCCS(=O)(=O)NC(=O)[C@H](C)OC1=CN=C2C=CC=CC2=C1 Z4188189473

>  <ref_pdb>  (106) 
Ax0310a

>  <ref_mols>  (106) 
Ax1097a,Ax0922a

>  <rationale>  (106) 
Enamine real space elaborations around a merge of x1097 and x0922.

$$$$
Z1962495039
     RDKit          3D

 25 27  0  0  0  0  0  0  0  0999 V2000
   13.0865   13.0439   22.4121 C   0  0  0  0  0  0  0  0  0  0  0  0
   11.7751   12.9845   23.1909 C   0  0  2  0  0  0  0  0  0  0  0  0
   11.2377   11.6362   23.1681 O   0  0  0  0  0  0  0  0  0  0  0  0
   10.0771   11.4289   23.8970 C   0  0  0  0  0  0  0  0  0  0  0  0
    9.5611   10.1253   24.0600 C   0  0  0  0  0  0  0  0  0  0  0  0
    8.4581    9.8389   24.7859 N   0  0  0  0  0  0  0  0  0  0  0  0
    7.8140   10.8575   25.3884 C   0  0  0  0  0  0  0  0  0  0  0  0
    6.6662   10.5886   26.1382 C   0  0  0  0  0  0  0  0  0  0  0  0
    5.9616   11.6172   26.7805 C   0  0  0  0  0  0  0  0  0  0  0  0
    6.4148   12.9366   26.6800 C   0  0  0  0  0  0  0  0  0  0  0  0
    7.5663   13.2265   25.9405 C   0  0  0  0  0  0  0  0  0  0  0  0
    8.2603   12.1946   25.2904 C   0  0  0  0  0  0  0  0  0  0  0  0
    9.4032   12.4722   24.5456 C   0  0  0  0  0  0  0  0  0  0  0  0
   10.7933   14.0129   22.6016 C   0  0  0  0  0  0  0  0  0  0  0  0
   10.4636   14.9794   23.2694 O   0  0  0  0  0  0  0  0  0  0  0  0
   10.2215   13.8753   21.3751 N   0  0  0  0  0  0  0  0  0  0  0  0
    8.7064   14.5738   21.2861 S   0  0  0  0  0  6  0  0  0  0  0  0
    7.8333   13.5671   20.6969 O   0  0  0  0  0  0  0  0  0  0  0  0
    8.2131   14.9201   22.6216 O   0  0  0  0  0  0  0  0  0  0  0  0
    8.9459   15.9430   20.1616 C   0  0  0  0  0  0  0  0  0  0  0  0
    9.9292   15.9689   19.2125 C   0  0  0  0  0  0  0  0  0  0  0  0
   11.3040   14.6489   18.9882 Br  0  0  0  0  0  0  0  0  0  0  0  0
    9.7880   17.1073   18.3407 C   0  0  0  0  0  0  0  0  0  0  0  0
    8.7166   17.9003   18.6858 C   0  0  0  0  0  0  0  0  0  0  0  0
    7.8516   17.3055   20.1001 S   0  0  0  0  0  0  0  0  0  0  0  0
  2  1  1  6
  2  3  1  0
  3  4  1  0
  4  5  2  0
  5  6  1  0
  6  7  2  0
  7  8  1  0
  8  9  2  0
  9 10  1  0
 10 11  2  0
 11 12  1  0
 12 13  2  0
  2 14  1  0
 14 15  2  0
 14 16  1  0
 16 17  1  0
 17 18  2  0
 17 19  2  0
 17 20  1  0
 20 21  2  0
 21 22  1  0
 21 23  1  0
 23 24  2  0
 24 25  1  0
 13  4  1  0
 25 20  1  0
 12  7  1  0
M  END
>  <cnnaffinity>  (107) 
-5.91012

>  <cnnaffinityIC50>  (107) 
1229.92888194808 nanomolar

>  <smiles>  (107) 
C[C@H](OC1=CN=C2C=CC=CC2=C1)C(=O)NS(=O)(=O)C1=C(Br)C=CS1 Z1962495039

>  <ref_pdb>  (107) 
Ax0310a

>  <ref_mols>  (107) 
Ax1097a,Ax0922a

>  <rationale>  (107) 
Enamine real space elaborations around a merge of x1097 and x0922.

$$$$
