ver_1.2
     RDKit          2D

 14 15  0  0  0  0  0  0  0  0999 V2000
    2.7760    0.0000    0.0000 C   0  0  0  0  0  0  0  0  0  0  0  0
    1.2760    0.0000    0.0000 N   0  0  0  0  0  0  0  0  0  0  0  0
    0.3943    1.2135    0.0000 C   0  0  0  0  0  0  0  0  0  0  0  0
   -1.0323    0.7500    0.0000 N   0  0  0  0  0  0  0  0  0  0  0  0
   -1.0323   -0.7500    0.0000 C   0  0  0  0  0  0  0  0  0  0  0  0
    0.3943   -1.2135    0.0000 C   0  0  0  0  0  0  0  0  0  0  0  0
    0.7062   -2.6807    0.0000 C   0  0  0  0  0  0  0  0  0  0  0  0
    2.1328   -3.1443    0.0000 O   0  0  0  0  0  0  0  0  0  0  0  0
   -0.4086   -3.6844    0.0000 N   0  0  0  0  0  0  0  0  0  0  0  0
   -1.8351   -3.2209    0.0000 C   0  0  0  0  0  0  0  0  0  0  0  0
   -2.9499   -4.2246    0.0000 O   0  0  0  0  0  0  0  0  0  0  0  0
   -2.1470   -1.7537    0.0000 N   0  0  0  0  0  0  0  0  0  0  0  0
   -3.5736   -1.2902    0.0000 C   0  0  0  0  0  0  0  0  0  0  0  0
   -0.0967   -5.1517    0.0000 C   0  0  0  0  0  0  0  0  0  0  0  0
  1  2  1  0
  2  3  1  0
  3  4  2  0
  4  5  1  0
  5  6  2  0
  6  7  1  0
  7  8  2  0
  7  9  1  0
  9 10  1  0
 10 11  2  0
 10 12  1  0
 12 13  1  0
  9 14  1  0
  6  2  1  0
 12  5  1  0
M  END
>  <ref_url>  (1) 
https://github.com/jthorton/EV-A71-2A-elaborations/tree/main/iteration2

>  <submitter_name>  (1) 
JTHorton/DJCole

>  <submitter_institution>  (1) 
Newcastle University (UK)

>  <submitter_email>  (1) 
Josh.Horton@newcastle.ac.uk

>  <generation_date>  (1) 
2024-04-02

>  <method>  (1) 
FEGrow-Elaborations

>  <cnnaffinityIC50>  (1) 
cnnaffinityIC50

>  <cnnaffinity>  (1) 
cnnaffinity

>  <rationale>  (1) 
rationale

$$$$
Z4383247673
     RDKit          3D

 23 26  0  0  0  0  0  0  0  0999 V2000
   11.4853   13.8477   24.9359 O   0  0  0  0  0  0  0  0  0  0  0  0
   11.8183   13.2135   23.9453 C   0  0  0  0  0  0  0  0  0  0  0  0
   13.0835   13.6068   23.2193 C   0  0  0  0  0  0  0  0  0  0  0  0
   12.6077   14.4163   22.1157 N   0  0  0  0  0  0  0  0  0  0  0  0
   12.8632   15.7333   21.9361 N   0  0  0  0  0  0  0  0  0  0  0  0
   12.1478   16.0918   20.9404 N   0  0  0  0  0  0  0  0  0  0  0  0
   11.4547   14.9663   20.5386 C   0  0  0  0  0  0  0  0  0  0  0  0
   10.5091   14.8398   19.3894 C   0  0  0  0  0  0  0  0  0  0  0  0
   10.0287   16.0032   18.5234 C   0  0  0  0  0  0  0  0  0  0  0  0
   11.1314   15.0709   18.0231 C   0  0  0  0  0  0  0  0  0  0  0  0
   11.6953   13.9230   21.2692 N   0  0  0  0  0  0  0  0  0  0  0  0
   11.0312   12.1748   23.4576 N   0  0  0  0  0  0  0  0  0  0  0  0
    9.8268   11.7297   24.0572 C   0  0  0  0  0  0  0  0  0  0  0  0
    9.1075   12.6614   24.7984 C   0  0  0  0  0  0  0  0  0  0  0  0
    7.9717   12.2656   25.4928 C   0  0  0  0  0  0  0  0  0  0  0  0
    7.2808   13.1807   26.2958 C   0  0  0  0  0  0  0  0  0  0  0  0
    6.1330   12.7715   26.9784 C   0  0  0  0  0  0  0  0  0  0  0  0
    5.6768   11.4533   26.8628 C   0  0  0  0  0  0  0  0  0  0  0  0
    6.3828   10.5364   26.0725 C   0  0  0  0  0  0  0  0  0  0  0  0
    7.5342   10.9261   25.3872 C   0  0  0  0  0  0  0  0  0  0  0  0
    8.1894   10.0186   24.6447 N   0  0  0  0  0  0  0  0  0  0  0  0
    9.3122   10.3988   23.9963 C   0  0  0  0  0  0  0  0  0  0  0  0
   10.2508    9.0414   23.0284 Br  0  0  0  0  0  0  0  0  0  0  0  0
  1  2  2  0
  2  3  1  0
  3  4  1  0
  4  5  1  0
  5  6  2  0
  6  7  1  0
  7  8  1  0
  8  9  1  0
  9 10  1  0
  7 11  2  0
  2 12  1  0
 12 13  1  0
 13 14  2  0
 14 15  1  0
 15 16  2  0
 16 17  1  0
 17 18  2  0
 18 19  1  0
 19 20  2  0
 20 21  1  0
 21 22  2  0
 22 23  1  0
 11  4  1  0
 22 13  1  0
 10  8  1  0
 20 15  1  0
M  END
>  <cnnaffinity>  (2) 
-6.22951

>  <cnnaffinityIC50>  (2) 
589.5084029766052 nanomolar

>  <smiles>  (2) 
O=C(CN1N=NC(C2CC2)=N1)NC1=CC2=CC=CC=C2N=C1Br Z4383247673

>  <ref_pdb>  (2) 
Ax0310a

>  <ref_mols>  (2) 
Ax0310a

>  <rationale>  (2) 
Enamine real space elaborations around a merge of x1097 and x0310.

>  <original SMILES>  (2) 
O=C(CN1N=NC(C2CC2)=N1)NC1=CC2=CC=CC=C2N=C1Br

$$$$
Z4048901029
     RDKit          3D

 22 24  0  0  0  0  0  0  0  0999 V2000
   12.5715   13.7969   18.9248 N   0  0  0  0  0  0  0  0  0  0  0  0
   12.3876   13.9421   20.0577 C   0  0  0  0  0  0  0  0  0  0  0  0
   12.0325   14.1848   21.4660 C   0  0  0  0  0  0  0  0  0  0  0  0
   10.6142   13.5770   21.6222 C   0  0  0  0  0  0  0  0  0  0  0  0
    9.6305   14.2245   21.3208 O   0  0  0  0  0  0  0  0  0  0  0  0
   10.5460   12.2935   22.1388 N   0  0  0  0  0  0  0  0  0  0  0  0
    9.5955   11.9115   23.0850 C   0  0  0  0  0  0  0  0  0  0  0  0
    8.8318   12.8516   23.7227 C   0  0  0  0  0  0  0  0  0  0  0  0
    7.9815   12.4780   24.7797 C   0  0  0  0  0  0  0  0  0  0  0  0
    7.2462   13.4323   25.5264 C   0  0  0  0  0  0  0  0  0  0  0  0
    6.4262   13.0313   26.5455 C   0  0  0  0  0  0  0  0  0  0  0  0
    6.3060   11.6515   26.8560 C   0  0  0  0  0  0  0  0  0  0  0  0
    7.0083   10.7075   26.1499 C   0  0  0  0  0  0  0  0  0  0  0  0
    7.8822   11.1086   25.1054 C   0  0  0  0  0  0  0  0  0  0  0  0
    8.6135   10.1645   24.4370 N   0  0  0  0  0  0  0  0  0  0  0  0
    9.4243   10.5544   23.5111 C   0  0  0  0  0  0  0  0  0  0  0  0
   10.3866    9.3293   22.7135 Cl  0  0  0  0  0  0  0  0  0  0  0  0
   13.0728   13.6290   22.4628 C   0  0  0  0  0  0  0  0  0  0  0  0
   12.6546   13.8393   23.9179 C   0  0  0  0  0  0  0  0  0  0  0  0
   12.4318   15.3268   24.1795 C   0  0  0  0  0  0  0  0  0  0  0  0
   11.5061   15.9555   23.1450 C   0  0  0  0  0  0  0  0  0  0  0  0
   11.9795   15.7141   21.7171 C   0  0  0  0  0  0  0  0  0  0  0  0
  1  2  3  0
  2  3  1  0
  3  4  1  0
  4  5  2  0
  4  6  1  0
  6  7  1  0
  7  8  2  0
  8  9  1  0
  9 10  2  0
 10 11  1  0
 11 12  2  0
 12 13  1  0
 13 14  2  0
 14 15  1  0
 15 16  2  0
 16 17  1  0
  3 18  1  0
 18 19  1  0
 19 20  1  0
 20 21  1  0
 21 22  1  0
 22  3  1  0
 16  7  1  0
 14  9  1  0
M  END
>  <cnnaffinity>  (3) 
-6.22266

>  <cnnaffinityIC50>  (3) 
598.8802623214531 nanomolar

>  <smiles>  (3) 
N#CC1(C(=O)NC2=CC3=CC=CC=C3N=C2Cl)CCCCC1 Z4048901029

>  <ref_pdb>  (3) 
Ax0310a

>  <ref_mols>  (3) 
Ax0310a

>  <rationale>  (3) 
Enamine real space elaborations around a merge of x1097 and x0310.

>  <original SMILES>  (3) 
N#CC1(C(=O)NC2=CC3=CC=CC=C3N=C2Cl)CCCCC1

$$$$
Z4383247638
     RDKit          3D

 23 25  0  0  0  0  0  0  0  0999 V2000
   13.1496   14.3575   24.0124 C   0  0  0  0  0  0  0  0  0  0  0  0
   12.8572   14.8662   22.5979 C   0  0  0  0  0  0  0  0  0  0  0  0
   11.9006   16.0572   22.7052 C   0  0  0  0  0  0  0  0  0  0  0  0
   12.1955   13.7530   21.7544 C   0  0  1  0  0  0  0  0  0  0  0  0
   10.8727   13.3149   22.4162 C   0  0  0  0  0  0  0  0  0  0  0  0
    9.9038   14.0646   22.4283 O   0  0  0  0  0  0  0  0  0  0  0  0
   10.8101   12.0964   23.0806 N   0  0  0  0  0  0  0  0  0  0  0  0
    9.7291   11.6606   23.8911 C   0  0  0  0  0  0  0  0  0  0  0  0
    9.0060   12.6361   24.5800 C   0  0  0  0  0  0  0  0  0  0  0  0
    7.9610   12.2421   25.4159 C   0  0  0  0  0  0  0  0  0  0  0  0
    7.2476   13.1929   26.1603 C   0  0  0  0  0  0  0  0  0  0  0  0
    6.1812   12.7849   26.9714 C   0  0  0  0  0  0  0  0  0  0  0  0
    5.8218   11.4353   27.0342 C   0  0  0  0  0  0  0  0  0  0  0  0
    6.5473   10.4916   26.2990 C   0  0  0  0  0  0  0  0  0  0  0  0
    7.6268   10.8712   25.5010 C   0  0  0  0  0  0  0  0  0  0  0  0
    8.3070    9.9212   24.8410 N   0  0  0  0  0  0  0  0  0  0  0  0
    9.3442   10.2969   24.0618 C   0  0  0  0  0  0  0  0  0  0  0  0
   10.2581    8.9069   23.1104 Br  0  0  0  0  0  0  0  0  0  0  0  0
   11.9770   14.2456   20.3714 N   0  0  0  0  0  0  0  0  0  0  0  0
   12.8595   14.1922   19.3171 C   0  0  0  0  0  0  0  0  0  0  0  0
   12.3220   14.7920   18.2991 N   0  0  0  0  0  0  0  0  0  0  0  0
   11.0974   15.2275   18.7182 N   0  0  0  0  0  0  0  0  0  0  0  0
   10.8832   14.9169   19.9487 N   0  0  0  0  0  0  0  0  0  0  0  0
  1  2  1  0
  2  3  1  0
  4  2  1  1
  4  5  1  0
  5  6  2  0
  5  7  1  0
  7  8  1  0
  8  9  2  0
  9 10  1  0
 10 11  2  0
 11 12  1  0
 12 13  2  0
 13 14  1  0
 14 15  2  0
 15 16  1  0
 16 17  2  0
 17 18  1  0
  4 19  1  0
 19 20  1  0
 20 21  2  0
 21 22  1  0
 22 23  2  0
 17  8  1  0
 23 19  1  0
 15 10  1  0
M  END
>  <cnnaffinity>  (4) 
-6.18839

>  <cnnaffinityIC50>  (4) 
648.0522159742167 nanomolar

>  <smiles>  (4) 
CC(C)C(C(=O)NC1=CC2=CC=CC=C2N=C1Br)N1C=NN=N1 Z4383247638

>  <ref_pdb>  (4) 
Ax0310a

>  <ref_mols>  (4) 
Ax0310a

>  <rationale>  (4) 
Enamine real space elaborations around a merge of x1097 and x0310.

>  <original SMILES>  (4) 
CC(C)C(C(=O)NC1=CC2=CC=CC=C2N=C1Br)N1C=NN=N1

$$$$
Z4375780482
     RDKit          3D

 23 25  0  0  0  0  0  0  0  0999 V2000
   11.8966   16.0683   22.6620 C   0  0  0  0  0  0  0  0  0  0  0  0
   12.8495   14.8715   22.5778 C   0  0  0  0  0  0  0  0  0  0  0  0
   13.1261   14.3790   24.0024 C   0  0  0  0  0  0  0  0  0  0  0  0
   12.1935   13.7530   21.7369 C   0  0  1  0  0  0  0  0  0  0  0  0
   10.8613   13.3323   22.3809 C   0  0  0  0  0  0  0  0  0  0  0  0
    9.9053   14.0989   22.4259 O   0  0  0  0  0  0  0  0  0  0  0  0
   10.7948   12.1107   23.0459 N   0  0  0  0  0  0  0  0  0  0  0  0
    9.7216   11.6771   23.8651 C   0  0  0  0  0  0  0  0  0  0  0  0
    9.0009   12.6510   24.5606 C   0  0  0  0  0  0  0  0  0  0  0  0
    7.9639   12.2521   25.4058 C   0  0  0  0  0  0  0  0  0  0  0  0
    7.2499   13.1992   26.1552 C   0  0  0  0  0  0  0  0  0  0  0  0
    6.1866   12.7899   26.9680 C   0  0  0  0  0  0  0  0  0  0  0  0
    5.8281   11.4401   27.0298 C   0  0  0  0  0  0  0  0  0  0  0  0
    6.5548   10.4973   26.2954 C   0  0  0  0  0  0  0  0  0  0  0  0
    7.6343   10.8781   25.4952 C   0  0  0  0  0  0  0  0  0  0  0  0
    8.3179    9.9288   24.8344 N   0  0  0  0  0  0  0  0  0  0  0  0
    9.3474   10.3072   24.0459 C   0  0  0  0  0  0  0  0  0  0  0  0
   10.2707    8.9145   23.1015 Br  0  0  0  0  0  0  0  0  0  0  0  0
   11.9775   14.2252   20.3527 N   0  0  0  0  0  0  0  0  0  0  0  0
   12.8844   14.1904   19.3054 C   0  0  0  0  0  0  0  0  0  0  0  0
   12.3702   14.7602   18.2540 N   0  0  0  0  0  0  0  0  0  0  0  0
   11.1074   15.1297   18.6882 C   0  0  0  0  0  0  0  0  0  0  0  0
   10.8423   14.8244   19.9367 N   0  0  0  0  0  0  0  0  0  0  0  0
  1  2  1  0
  2  3  1  0
  4  2  1  1
  4  5  1  0
  5  6  2  0
  5  7  1  0
  7  8  1  0
  8  9  2  0
  9 10  1  0
 10 11  2  0
 11 12  1  0
 12 13  2  0
 13 14  1  0
 14 15  2  0
 15 16  1  0
 16 17  2  0
 17 18  1  0
  4 19  1  0
 19 20  1  0
 20 21  2  0
 21 22  1  0
 22 23  2  0
 17  8  1  0
 23 19  1  0
 15 10  1  0
M  END
>  <cnnaffinity>  (5) 
-6.17705

>  <cnnaffinityIC50>  (5) 
665.1965682079727 nanomolar

>  <smiles>  (5) 
CC(C)C(C(=O)NC1=CC2=CC=CC=C2N=C1Br)N1C=NC=N1 Z4375780482

>  <ref_pdb>  (5) 
Ax0310a

>  <ref_mols>  (5) 
Ax0310a

>  <rationale>  (5) 
Enamine real space elaborations around a merge of x1097 and x0310.

>  <original SMILES>  (5) 
CC(C)C(C(=O)NC1=CC2=CC=CC=C2N=C1Br)N1C=NC=N1

$$$$
Z3084362121
     RDKit          3D

 23 26  0  0  0  0  0  0  0  0999 V2000
    9.8923   13.8747   22.2277 O   0  0  0  0  0  0  0  0  0  0  0  0
   10.8865   13.1602   22.3053 C   0  0  0  0  0  0  0  0  0  0  0  0
   10.8213   12.0038   23.0757 N   0  0  0  0  0  0  0  0  0  0  0  0
    9.7282   11.6193   23.8926 C   0  0  0  0  0  0  0  0  0  0  0  0
    9.0257   12.6066   24.5929 C   0  0  0  0  0  0  0  0  0  0  0  0
    7.9653   12.2311   25.4249 C   0  0  0  0  0  0  0  0  0  0  0  0
    7.2447   13.1801   26.1704 C   0  0  0  0  0  0  0  0  0  0  0  0
    6.1727   12.7750   26.9771 C   0  0  0  0  0  0  0  0  0  0  0  0
    5.8113   11.4279   27.0450 C   0  0  0  0  0  0  0  0  0  0  0  0
    6.5373   10.4851   26.3115 C   0  0  0  0  0  0  0  0  0  0  0  0
    7.6167   10.8635   25.5103 C   0  0  0  0  0  0  0  0  0  0  0  0
    8.2833    9.9064   24.8453 N   0  0  0  0  0  0  0  0  0  0  0  0
    9.3209   10.2666   24.0639 C   0  0  0  0  0  0  0  0  0  0  0  0
   10.2288    8.8780   23.1089 Br  0  0  0  0  0  0  0  0  0  0  0  0
   12.2274   13.6037   21.6796 C   0  0  2  0  0  0  0  0  0  0  0  0
   12.9756   14.5403   22.6617 C   0  0  0  0  0  0  0  0  0  0  0  0
   12.2955   15.9169   22.7609 C   0  0  0  0  0  0  0  0  0  0  0  0
   12.1732   16.5718   21.3739 C   0  0  0  0  0  0  0  0  0  0  0  0
   11.6139   15.6244   20.3480 C   0  0  0  0  0  0  0  0  0  0  0  0
   10.8892   15.8196   19.2749 N   0  0  0  0  0  0  0  0  0  0  0  0
   11.0888   14.6611   18.5521 C   0  0  0  0  0  0  0  0  0  0  0  0
   11.7631   13.7502   19.1948 N   0  0  0  0  0  0  0  0  0  0  0  0
   12.0000   14.3101   20.3988 N   0  0  0  0  0  0  0  0  0  0  0  0
  1  2  2  0
  2  3  1  0
  3  4  1  0
  4  5  2  0
  5  6  1  0
  6  7  2  0
  7  8  1  0
  8  9  2  0
  9 10  1  0
 10 11  2  0
 11 12  1  0
 12 13  2  0
 13 14  1  0
 15  2  1  1
 15 16  1  0
 16 17  1  0
 17 18  1  0
 18 19  1  0
 19 20  2  0
 20 21  1  0
 21 22  2  0
 22 23  1  0
 13  4  1  0
 23 15  1  0
 11  6  1  0
 23 19  1  0
M  END
>  <cnnaffinity>  (6) 
-6.16229

>  <cnnaffinityIC50>  (6) 
688.1926024931407 nanomolar

>  <smiles>  (6) 
O=C(NC1=CC2=CC=CC=C2N=C1Br)C1CCCC2=NC=NN21 Z3084362121

>  <ref_pdb>  (6) 
Ax0310a

>  <ref_mols>  (6) 
Ax0310a

>  <rationale>  (6) 
Enamine real space elaborations around a merge of x1097 and x0310.

>  <original SMILES>  (6) 
O=C(NC1=CC2=CC=CC=C2N=C1Br)C1CCCC2=NC=NN21

$$$$
Z4410448635
     RDKit          3D

 23 26  0  0  0  0  0  0  0  0999 V2000
   11.4411   13.6201   24.6436 O   0  0  0  0  0  0  0  0  0  0  0  0
   11.5734   13.0111   23.5894 C   0  0  0  0  0  0  0  0  0  0  0  0
   12.4463   13.6055   22.4856 C   0  0  0  0  0  0  0  0  0  0  0  0
   11.6481   14.5915   21.6056 C   0  0  0  0  0  0  0  0  0  0  0  0
   11.9975   14.6600   20.1356 C   0  0  0  0  0  0  0  0  0  0  0  0
   13.1512   15.0800   19.7010 N   0  0  0  0  0  0  0  0  0  0  0  0
   12.9562   14.9493   18.3730 N   0  0  0  0  0  0  0  0  0  0  0  0
   11.7494   14.4497   18.0237 N   0  0  0  0  0  0  0  0  0  0  0  0
   11.1328   14.2781   19.1220 N   0  0  0  0  0  0  0  0  0  0  0  0
   10.2071   14.9294   22.0069 C   0  0  0  0  0  0  0  0  0  0  0  0
   11.3391   15.9085   22.3013 C   0  0  0  0  0  0  0  0  0  0  0  0
   10.8135   11.8822   23.3169 N   0  0  0  0  0  0  0  0  0  0  0  0
    9.6770   11.5041   24.0663 C   0  0  0  0  0  0  0  0  0  0  0  0
    8.9957   12.4988   24.7675 C   0  0  0  0  0  0  0  0  0  0  0  0
    7.8786   12.1526   25.5249 C   0  0  0  0  0  0  0  0  0  0  0  0
    7.1838   13.1290   26.2541 C   0  0  0  0  0  0  0  0  0  0  0  0
    6.0826   12.7785   27.0404 C   0  0  0  0  0  0  0  0  0  0  0  0
    5.1553   14.1177   28.0444 Br  0  0  0  0  0  0  0  0  0  0  0  0
    5.6656   11.4450   27.0876 C   0  0  0  0  0  0  0  0  0  0  0  0
    6.3482   10.4680   26.3458 C   0  0  0  0  0  0  0  0  0  0  0  0
    7.4581   10.8020   25.5608 C   0  0  0  0  0  0  0  0  0  0  0  0
    8.0935    9.8327   24.8714 N   0  0  0  0  0  0  0  0  0  0  0  0
    9.1768   10.1808   24.1406 C   0  0  0  0  0  0  0  0  0  0  0  0
  1  2  2  0
  2  3  1  0
  3  4  1  0
  4  5  1  0
  5  6  2  0
  6  7  1  0
  7  8  1  0
  8  9  2  0
  4 10  1  0
 10 11  1  0
  2 12  1  0
 12 13  1  0
 13 14  2  0
 14 15  1  0
 15 16  2  0
 16 17  1  0
 17 18  1  0
 17 19  2  0
 19 20  1  0
 20 21  2  0
 21 22  1  0
 22 23  2  0
 11  4  1  0
 23 13  1  0
  9  5  1  0
 21 15  1  0
M  END
>  <cnnaffinity>  (7) 
-6.14051

>  <cnnaffinityIC50>  (7) 
723.5857409110256 nanomolar

>  <smiles>  (7) 
O=C(CC1(C2=NNN=N2)CC1)NC1=CC2=CC(Br)=CC=C2N=C1 Z4410448635

>  <ref_pdb>  (7) 
Ax0310a

>  <ref_mols>  (7) 
Ax0310a

>  <rationale>  (7) 
Enamine real space elaborations around a merge of x1097 and x0310.

>  <original SMILES>  (7) 
O=C(CC1(C2=NNN=N2)CC1)NC1=CC2=CC(Br)=CC=C2N=C1

$$$$
Z5361339904
     RDKit          3D

 23 26  0  0  0  0  0  0  0  0999 V2000
   11.5040   13.7725   24.5404 O   0  0  0  0  0  0  0  0  0  0  0  0
   11.6313   13.1943   23.4681 C   0  0  0  0  0  0  0  0  0  0  0  0
   10.8880   12.0567   23.1709 N   0  0  0  0  0  0  0  0  0  0  0  0
    9.7877   11.6136   23.9375 C   0  0  0  0  0  0  0  0  0  0  0  0
    9.1169   12.5821   24.6801 C   0  0  0  0  0  0  0  0  0  0  0  0
    8.0219   12.2183   25.4511 C   0  0  0  0  0  0  0  0  0  0  0  0
    7.3194   13.1887   26.1780 C   0  0  0  0  0  0  0  0  0  0  0  0
    6.2210   12.8143   26.9527 C   0  0  0  0  0  0  0  0  0  0  0  0
    5.8282   11.4756   27.0136 C   0  0  0  0  0  0  0  0  0  0  0  0
    6.5275   10.5126   26.2734 C   0  0  0  0  0  0  0  0  0  0  0  0
    7.6227   10.8637   25.4817 C   0  0  0  0  0  0  0  0  0  0  0  0
    8.2546    9.9126   24.7683 N   0  0  0  0  0  0  0  0  0  0  0  0
    9.3092   10.2709   24.0028 C   0  0  0  0  0  0  0  0  0  0  0  0
   10.1666    8.8887   22.9895 Br  0  0  0  0  0  0  0  0  0  0  0  0
   12.5236   13.7512   22.3536 C   0  0  2  0  0  0  0  0  0  0  0  0
   13.2246   15.0866   22.6185 C   0  0  0  0  0  0  0  0  0  0  0  0
   12.5342   15.6903   21.4077 C   0  0  0  0  0  0  0  0  0  0  0  0
   11.8055   14.3704   21.1217 C   0  0  2  0  0  0  0  0  0  0  0  0
   10.2795   14.4113   21.1198 C   0  0  0  0  0  0  0  0  0  0  0  0
    9.5254   14.0445   20.1063 N   0  0  0  0  0  0  0  0  0  0  0  0
    8.2744   14.1575   20.6050 N   0  0  0  0  0  0  0  0  0  0  0  0
    8.3071   14.5947   21.9077 C   0  0  0  0  0  0  0  0  0  0  0  0
    9.5474   14.7652   22.2510 N   0  0  0  0  0  0  0  0  0  0  0  0
  1  2  2  0
  2  3  1  0
  3  4  1  0
  4  5  2  0
  5  6  1  0
  6  7  2  0
  7  8  1  0
  8  9  2  0
  9 10  1  0
 10 11  2  0
 11 12  1  0
 12 13  2  0
 13 14  1  0
 15  2  1  1
 15 16  1  0
 16 17  1  0
 17 18  1  0
 18 19  1  1
 19 20  2  0
 20 21  1  0
 21 22  1  0
 22 23  2  0
 13  4  1  0
 18 15  1  0
 23 19  1  0
 11  6  1  0
M  END
>  <cnnaffinity>  (8) 
-6.13619

>  <cnnaffinityIC50>  (8) 
730.8192865513232 nanomolar

>  <smiles>  (8) 
O=C(NC1=CC2=CC=CC=C2N=C1Br)[C@@H]1CC[C@@H]1C1=NNC=N1 Z5361339904

>  <ref_pdb>  (8) 
Ax0310a

>  <ref_mols>  (8) 
Ax0310a

>  <rationale>  (8) 
Enamine real space elaborations around a merge of x1097 and x0310.

>  <original SMILES>  (8) 
O=C(NC1=CC2=CC=CC=C2N=C1Br)[C@@H]1CC[C@@H]1C1=NNC=N1

$$$$
Z2673144408
     RDKit          3D

 22 24  0  0  0  0  0  0  0  0999 V2000
   10.8819   14.8319   18.9848 C   0  0  0  0  0  0  0  0  0  0  0  0
   12.2983   14.3289   19.9819 S   0  0  0  0  0  6  0  0  0  0  0  0
   13.3485   15.3304   19.8538 O   0  0  0  0  0  0  0  0  0  0  0  0
   12.8364   13.0507   19.5168 O   0  0  0  0  0  0  0  0  0  0  0  0
   11.8234   14.2869   21.7027 C   0  0  0  0  0  0  0  0  0  0  0  0
   10.6138   13.4347   21.5898 C   0  0  0  0  0  0  0  0  0  0  0  0
    9.5832   13.9630   21.2224 O   0  0  0  0  0  0  0  0  0  0  0  0
   10.6232   12.1677   22.1295 N   0  0  0  0  0  0  0  0  0  0  0  0
    9.6458   11.7500   23.0603 C   0  0  0  0  0  0  0  0  0  0  0  0
    8.9544   12.7497   23.7441 C   0  0  0  0  0  0  0  0  0  0  0  0
    8.0669   12.3974   24.7546 C   0  0  0  0  0  0  0  0  0  0  0  0
    7.4077   13.3817   25.5043 C   0  0  0  0  0  0  0  0  0  0  0  0
    6.5426   13.0063   26.5369 C   0  0  0  0  0  0  0  0  0  0  0  0
    6.3301   11.6527   26.8195 C   0  0  0  0  0  0  0  0  0  0  0  0
    6.9892   10.6730   26.0635 C   0  0  0  0  0  0  0  0  0  0  0  0
    7.8638   11.0279   25.0355 C   0  0  0  0  0  0  0  0  0  0  0  0
    8.4926   10.0511   24.3595 N   0  0  0  0  0  0  0  0  0  0  0  0
    9.3717   10.3959   23.3963 C   0  0  0  0  0  0  0  0  0  0  0  0
   10.2640    8.9848   22.4697 Br  0  0  0  0  0  0  0  0  0  0  0  0
   11.7005   15.6559   22.4031 C   0  0  0  0  0  0  0  0  0  0  0  0
   12.9884   15.3657   23.1467 C   0  0  0  0  0  0  0  0  0  0  0  0
   12.9129   13.9120   22.7170 C   0  0  0  0  0  0  0  0  0  0  0  0
  1  2  1  0
  2  3  2  0
  2  4  2  0
  2  5  1  0
  5  6  1  0
  6  7  2  0
  6  8  1  0
  8  9  1  0
  9 10  2  0
 10 11  1  0
 11 12  2  0
 12 13  1  0
 13 14  2  0
 14 15  1  0
 15 16  2  0
 16 17  1  0
 17 18  2  0
 18 19  1  0
  5 20  1  0
 20 21  1  0
 21 22  1  0
 22  5  1  0
 18  9  1  0
 16 11  1  0
M  END
>  <cnnaffinity>  (9) 
-6.12865

>  <cnnaffinityIC50>  (9) 
743.6181819272585 nanomolar

>  <smiles>  (9) 
CS(=O)(=O)C1(C(=O)NC2=CC3=CC=CC=C3N=C2Br)CCC1 Z2673144408

>  <ref_pdb>  (9) 
Ax0310a

>  <ref_mols>  (9) 
Ax0310a

>  <rationale>  (9) 
Enamine real space elaborations around a merge of x1097 and x0310.

>  <original SMILES>  (9) 
CS(=O)(=O)C1(C(=O)NC2=CC3=CC=CC=C3N=C2Br)CCC1

$$$$
Z4377310626
     RDKit          3D

 23 25  0  0  0  0  0  0  0  0999 V2000
    9.4115   16.3523   18.5771 O   0  0  0  0  0  0  0  0  0  0  0  0
   10.3903   15.8512   19.1201 C   0  0  0  0  0  0  0  0  0  0  0  0
   11.2966   14.8155   18.4938 C   0  0  0  0  0  0  0  0  0  0  0  0
   12.4560   14.6757   19.4839 C   0  0  0  0  0  0  0  0  0  0  0  0
   11.9759   15.2407   20.8324 C   0  0  2  0  0  0  0  0  0  0  0  0
   11.4108   14.1415   21.7259 C   0  0  0  0  0  0  0  0  0  0  0  0
   12.4544   13.4241   22.5883 C   0  0  0  0  0  0  0  0  0  0  0  0
   11.6702   12.7077   23.6766 C   0  0  0  0  0  0  0  0  0  0  0  0
   11.5606   13.2555   24.7609 O   0  0  0  0  0  0  0  0  0  0  0  0
   10.8471   11.6369   23.3462 N   0  0  0  0  0  0  0  0  0  0  0  0
    9.6768   11.2673   24.0666 C   0  0  0  0  0  0  0  0  0  0  0  0
    9.0526   12.2517   24.8339 C   0  0  0  0  0  0  0  0  0  0  0  0
    7.8800   11.9512   25.5238 C   0  0  0  0  0  0  0  0  0  0  0  0
    7.2276   12.9328   26.2863 C   0  0  0  0  0  0  0  0  0  0  0  0
    6.0502   12.6091   26.9693 C   0  0  0  0  0  0  0  0  0  0  0  0
    5.5236   11.3170   26.8979 C   0  0  0  0  0  0  0  0  0  0  0  0
    3.9359   10.8736   27.8643 Br  0  0  0  0  0  0  0  0  0  0  0  0
    6.1726   10.3508   26.1222 C   0  0  0  0  0  0  0  0  0  0  0  0
    7.3510   10.6457   25.4353 C   0  0  0  0  0  0  0  0  0  0  0  0
    7.9421    9.6781   24.7121 N   0  0  0  0  0  0  0  0  0  0  0  0
    9.0746    9.9769   24.0371 C   0  0  0  0  0  0  0  0  0  0  0  0
    9.8160    8.7074   23.0963 Cl  0  0  0  0  0  0  0  0  0  0  0  0
   10.8258   16.2003   20.5220 C   0  0  0  0  0  0  0  0  0  0  0  0
  1  2  2  0
  2  3  1  0
  3  4  1  0
  4  5  1  0
  5  6  1  1
  6  7  1  0
  7  8  1  0
  8  9  2  0
  8 10  1  0
 10 11  1  0
 11 12  2  0
 12 13  1  0
 13 14  2  0
 14 15  1  0
 15 16  2  0
 16 17  1  0
 16 18  1  0
 18 19  2  0
 19 20  1  0
 20 21  2  0
 21 22  1  0
  5 23  1  0
 23  2  1  0
 21 11  1  0
 19 13  1  0
M  END
>  <cnnaffinity>  (10) 
-6.09631

>  <cnnaffinityIC50>  (10) 
801.1060286645322 nanomolar

>  <smiles>  (10) 
O=C1CCC(CCC(=O)NC2=CC3=CC=C(Br)C=C3N=C2Cl)C1 Z4377310626

>  <ref_pdb>  (10) 
Ax0310a

>  <ref_mols>  (10) 
Ax0310a

>  <rationale>  (10) 
Enamine real space elaborations around a merge of x1097 and x0310.

>  <original SMILES>  (10) 
O=C1CCC(CCC(=O)NC2=CC3=CC=C(Br)C=C3N=C2Cl)C1

$$$$
PV-005653042228
     RDKit          3D

 21 23  0  0  0  0  0  0  0  0999 V2000
   11.6883   13.8923   24.7933 O   0  0  0  0  0  0  0  0  0  0  0  0
   11.7425   13.5089   23.6415 C   0  0  0  0  0  0  0  0  0  0  0  0
   12.7313   14.1024   22.6401 C   0  0  0  0  0  0  0  0  0  0  0  0
   12.0939   14.4668   21.3916 N   0  0  0  0  0  0  0  0  0  0  0  0
   11.1091   15.3818   21.2548 C   0  0  0  0  0  0  0  0  0  0  0  0
   10.7466   15.3540   19.9294 C   0  0  0  0  0  0  0  0  0  0  0  0
    9.5596   16.3449   19.1764 Cl  0  0  0  0  0  0  0  0  0  0  0  0
   11.5791   14.3822   19.3365 C   0  0  0  0  0  0  0  0  0  0  0  0
   12.3974   13.8622   20.2376 N   0  0  0  0  0  0  0  0  0  0  0  0
   10.9286   12.5228   23.1440 N   0  0  0  0  0  0  0  0  0  0  0  0
    9.8195   12.0716   23.8699 C   0  0  0  0  0  0  0  0  0  0  0  0
    9.0729   12.9418   24.6159 C   0  0  0  0  0  0  0  0  0  0  0  0
    7.9853   12.4676   25.3724 C   0  0  0  0  0  0  0  0  0  0  0  0
    7.2050   13.3304   26.1830 C   0  0  0  0  0  0  0  0  0  0  0  0
    6.1798   12.8212   26.9330 C   0  0  0  0  0  0  0  0  0  0  0  0
    5.8954   11.4323   26.8980 C   0  0  0  0  0  0  0  0  0  0  0  0
    6.6288   10.5847   26.1057 C   0  0  0  0  0  0  0  0  0  0  0  0
    7.6999   11.0870   25.3260 C   0  0  0  0  0  0  0  0  0  0  0  0
    8.4270   10.2266   24.5478 N   0  0  0  0  0  0  0  0  0  0  0  0
    9.4104   10.7041   23.8587 C   0  0  0  0  0  0  0  0  0  0  0  0
   10.2833    9.5896   22.8419 Cl  0  0  0  0  0  0  0  0  0  0  0  0
  1  2  2  0
  2  3  1  0
  3  4  1  0
  4  5  1  0
  5  6  2  0
  6  7  1  0
  6  8  1  0
  8  9  2  0
  2 10  1  0
 10 11  1  0
 11 12  2  0
 12 13  1  0
 13 14  2  0
 14 15  1  0
 15 16  2  0
 16 17  1  0
 17 18  2  0
 18 19  1  0
 19 20  2  0
 20 21  1  0
  9  4  1  0
 20 11  1  0
 18 13  1  0
M  END
>  <cnnaffinity>  (11) 
-6.07597

>  <cnnaffinityIC50>  (11) 
839.5179763638066 nanomolar

>  <smiles>  (11) 
O=C(CN1C=C(Cl)C=N1)NC1=CC2=CC=CC=C2N=C1Cl PV-005653042228

>  <ref_pdb>  (11) 
Ax0310a

>  <ref_mols>  (11) 
Ax0310a

>  <rationale>  (11) 
Enamine real space elaborations around a merge of x1097 and x0310.

>  <original SMILES>  (11) 
O=C(CN1C=C(Cl)C=N1)NC1=CC2=CC=CC=C2N=C1Cl

$$$$
Z4048899221
     RDKit          3D

 22 25  0  0  0  0  0  0  0  0999 V2000
   12.8768   13.4589   19.3920 N   0  0  0  0  0  0  0  0  0  0  0  0
   12.5165   13.4852   20.4912 C   0  0  0  0  0  0  0  0  0  0  0  0
   11.9922   13.6483   21.8233 C   0  0  1  0  0  0  0  0  0  0  0  0
   10.5755   13.1580   22.0492 C   0  0  0  0  0  0  0  0  0  0  0  0
    9.5988   13.7992   21.7223 O   0  0  0  0  0  0  0  0  0  0  0  0
   10.4777   11.9427   22.6981 N   0  0  0  0  0  0  0  0  0  0  0  0
    9.4211   11.6308   23.5674 C   0  0  0  0  0  0  0  0  0  0  0  0
    8.7089   12.6055   24.2158 C   0  0  0  0  0  0  0  0  0  0  0  0
    7.7523   12.2535   25.1885 C   0  0  0  0  0  0  0  0  0  0  0  0
    7.0616   13.2303   25.9518 C   0  0  0  0  0  0  0  0  0  0  0  0
    6.1654   12.8481   26.9142 C   0  0  0  0  0  0  0  0  0  0  0  0
    5.9147   11.4711   27.1386 C   0  0  0  0  0  0  0  0  0  0  0  0
    6.5625   10.5118   26.4048 C   0  0  0  0  0  0  0  0  0  0  0  0
    7.5079   10.8832   25.4160 C   0  0  0  0  0  0  0  0  0  0  0  0
    8.1725    9.9083   24.7171 N   0  0  0  0  0  0  0  0  0  0  0  0
    9.0730   10.2735   23.8679 C   0  0  0  0  0  0  0  0  0  0  0  0
    9.9148    9.0104   23.0050 Cl  0  0  0  0  0  0  0  0  0  0  0  0
   12.8838   13.7753   23.0562 C   0  0  0  0  0  0  0  0  0  0  0  0
   12.3670   14.9933   22.3799 C   0  0  0  0  0  0  0  0  0  0  0  0
   11.3767   16.0207   22.8439 C   0  0  0  0  0  0  0  0  0  0  0  0
   12.2433   17.0948   22.1618 C   0  0  0  0  0  0  0  0  0  0  0  0
   13.1953   16.0105   21.6259 C   0  0  0  0  0  0  0  0  0  0  0  0
  1  2  3  0
  3  2  1  6
  3  4  1  0
  4  5  2  0
  4  6  1  0
  6  7  1  0
  7  8  2  0
  8  9  1  0
  9 10  2  0
 10 11  1  0
 11 12  2  0
 12 13  1  0
 13 14  2  0
 14 15  1  0
 15 16  2  0
 16 17  1  0
  3 18  1  0
 18 19  1  0
 19 20  1  0
 20 21  1  0
 21 22  1  0
 19  3  1  0
 16  7  1  0
 22 19  1  0
 14  9  1  0
M  END
>  <cnnaffinity>  (12) 
-6.06683

>  <cnnaffinityIC50>  (12) 
857.3733893350019 nanomolar

>  <smiles>  (12) 
N#CC1(C(=O)NC2=CC3=CC=CC=C3N=C2Cl)CC12CCC2 Z4048899221

>  <ref_pdb>  (12) 
Ax0310a

>  <ref_mols>  (12) 
Ax0310a

>  <rationale>  (12) 
Enamine real space elaborations around a merge of x1097 and x0310.

>  <original SMILES>  (12) 
N#CC1(C(=O)NC2=CC3=CC=CC=C3N=C2Cl)CC12CCC2

$$$$
Z4666025435
     RDKit          3D

 23 26  0  0  0  0  0  0  0  0999 V2000
    9.4317   14.2736   22.0161 O   0  0  0  0  0  0  0  0  0  0  0  0
   10.5457   13.7606   21.9904 C   0  0  0  0  0  0  0  0  0  0  0  0
   10.7070   12.5136   22.5866 N   0  0  0  0  0  0  0  0  0  0  0  0
    9.7903   11.9669   23.5294 C   0  0  0  0  0  0  0  0  0  0  0  0
    9.0241   12.8824   24.2556 C   0  0  0  0  0  0  0  0  0  0  0  0
    8.0873   12.4299   25.1788 C   0  0  0  0  0  0  0  0  0  0  0  0
    7.3085   13.3430   25.9037 C   0  0  0  0  0  0  0  0  0  0  0  0
    6.3084   12.8740   26.7599 C   0  0  0  0  0  0  0  0  0  0  0  0
    6.1025   11.5014   26.9156 C   0  0  0  0  0  0  0  0  0  0  0  0
    6.9260   10.5967   26.2319 C   0  0  0  0  0  0  0  0  0  0  0  0
    7.9191   11.0408   25.3543 C   0  0  0  0  0  0  0  0  0  0  0  0
    8.6650   10.1378   24.6936 N   0  0  0  0  0  0  0  0  0  0  0  0
    9.5876   10.5787   23.8081 C   0  0  0  0  0  0  0  0  0  0  0  0
   10.5706    9.2346   22.8645 Br  0  0  0  0  0  0  0  0  0  0  0  0
   11.7660   14.5790   21.4945 C   0  0  1  0  0  0  0  0  0  0  0  0
   12.3948   14.0901   20.1712 C   0  0  0  0  0  0  0  0  0  0  0  0
   11.4356   14.2101   18.9727 C   0  0  0  0  0  0  0  0  0  0  0  0
   10.5464   15.3627   19.0610 N   0  0  0  0  0  0  0  0  0  0  0  0
    9.5164   15.6594   18.2073 C   0  0  0  0  0  0  0  0  0  0  0  0
    8.9004   16.7283   18.6329 N   0  0  0  0  0  0  0  0  0  0  0  0
    9.4963   17.0812   19.8154 N   0  0  0  0  0  0  0  0  0  0  0  0
   10.4568   16.2359   20.1069 C   0  0  0  0  0  0  0  0  0  0  0  0
   11.4096   16.0725   21.2768 C   0  0  0  0  0  0  0  0  0  0  0  0
  1  2  2  0
  2  3  1  0
  3  4  1  0
  4  5  2  0
  5  6  1  0
  6  7  2  0
  7  8  1  0
  8  9  2  0
  9 10  1  0
 10 11  2  0
 11 12  1  0
 12 13  2  0
 13 14  1  0
 15  2  1  6
 15 16  1  0
 16 17  1  0
 17 18  1  0
 18 19  1  0
 19 20  2  0
 20 21  1  0
 21 22  2  0
 22 23  1  0
 13  4  1  0
 23 15  1  0
 11  6  1  0
 22 18  1  0
M  END
>  <cnnaffinity>  (13) 
-6.06033

>  <cnnaffinityIC50>  (13) 
870.3020369624551 nanomolar

>  <smiles>  (13) 
O=C(NC1=CC2=CC=CC=C2N=C1Br)C1CCN2C=NN=C2C1 Z4666025435

>  <ref_pdb>  (13) 
Ax0310a

>  <ref_mols>  (13) 
Ax0310a

>  <rationale>  (13) 
Enamine real space elaborations around a merge of x1097 and x0310.

>  <original SMILES>  (13) 
O=C(NC1=CC2=CC=CC=C2N=C1Br)C1CCN2C=NN=C2C1

$$$$
Z4383247654
     RDKit          3D

 23 26  0  0  0  0  0  0  0  0999 V2000
    9.9142   13.9628   22.4926 O   0  0  0  0  0  0  0  0  0  0  0  0
   10.8586   13.1865   22.3686 C   0  0  0  0  0  0  0  0  0  0  0  0
   10.7880   11.9519   23.0151 N   0  0  0  0  0  0  0  0  0  0  0  0
    9.7244   11.5580   23.8706 C   0  0  0  0  0  0  0  0  0  0  0  0
    9.0181   12.5594   24.5423 C   0  0  0  0  0  0  0  0  0  0  0  0
    7.9651   12.2134   25.3877 C   0  0  0  0  0  0  0  0  0  0  0  0
    7.2568   13.1960   26.0992 C   0  0  0  0  0  0  0  0  0  0  0  0
    6.1958   12.8253   26.9323 C   0  0  0  0  0  0  0  0  0  0  0  0
    5.8232   11.4833   27.0448 C   0  0  0  0  0  0  0  0  0  0  0  0
    6.5376   10.5092   26.3366 C   0  0  0  0  0  0  0  0  0  0  0  0
    7.6188   10.8508   25.5209 C   0  0  0  0  0  0  0  0  0  0  0  0
    8.2917    9.8715   24.8922 N   0  0  0  0  0  0  0  0  0  0  0  0
    9.3306   10.2086   24.0968 C   0  0  0  0  0  0  0  0  0  0  0  0
   10.2463    8.7886   23.1992 Br  0  0  0  0  0  0  0  0  0  0  0  0
   12.1143   13.6153   21.5602 C   0  0  2  0  0  0  0  0  0  0  0  0
   12.9800   14.5290   22.4579 C   0  0  0  0  0  0  0  0  0  0  0  0
   12.2281   15.8452   22.7269 C   0  0  0  0  0  0  0  0  0  0  0  0
   12.0560   16.5896   21.3985 C   0  0  0  0  0  0  0  0  0  0  0  0
   11.4072   15.7093   20.3659 C   0  0  0  0  0  0  0  0  0  0  0  0
   10.6445   15.9843   19.3334 N   0  0  0  0  0  0  0  0  0  0  0  0
   10.6996   14.9116   18.4858 N   0  0  0  0  0  0  0  0  0  0  0  0
   11.4420   13.9975   19.0532 C   0  0  0  0  0  0  0  0  0  0  0  0
   11.7701   14.3944   20.3325 N   0  0  0  0  0  0  0  0  0  0  0  0
  1  2  2  0
  2  3  1  0
  3  4  1  0
  4  5  2  0
  5  6  1  0
  6  7  2  0
  7  8  1  0
  8  9  2  0
  9 10  1  0
 10 11  2  0
 11 12  1  0
 12 13  2  0
 13 14  1  0
 15  2  1  1
 15 16  1  0
 16 17  1  0
 17 18  1  0
 18 19  1  0
 19 20  2  0
 20 21  1  0
 21 22  2  0
 22 23  1  0
 13  4  1  0
 23 15  1  0
 11  6  1  0
 23 19  1  0
M  END
>  <cnnaffinity>  (14) 
-6.0532

>  <cnnaffinityIC50>  (14) 
884.70809287053 nanomolar

>  <smiles>  (14) 
O=C(NC1=CC2=CC=CC=C2N=C1Br)C1CCCC2=NN=CN21 Z4383247654

>  <ref_pdb>  (14) 
Ax0310a

>  <ref_mols>  (14) 
Ax0310a

>  <rationale>  (14) 
Enamine real space elaborations around a merge of x1097 and x0310.

>  <original SMILES>  (14) 
O=C(NC1=CC2=CC=CC=C2N=C1Br)C1CCCC2=NN=CN21

$$$$
Z3714463543
     RDKit          3D

 23 25  0  0  0  0  0  0  0  0999 V2000
    5.2780   13.7662   27.9213 C   0  0  0  0  0  0  0  0  0  0  0  0
    6.0759   12.7797   27.1038 C   0  0  0  0  0  0  0  0  0  0  0  0
    7.1413   13.1873   26.3397 C   0  0  0  0  0  0  0  0  0  0  0  0
    7.9028   12.2648   25.5770 C   0  0  0  0  0  0  0  0  0  0  0  0
    8.9526   12.6885   24.7385 C   0  0  0  0  0  0  0  0  0  0  0  0
    9.6478   11.7525   24.0180 C   0  0  0  0  0  0  0  0  0  0  0  0
   10.6770   12.1016   23.1259 N   0  0  0  0  0  0  0  0  0  0  0  0
   10.7620   13.3376   22.5244 C   0  0  0  0  0  0  0  0  0  0  0  0
    9.8388   14.1232   22.5686 O   0  0  0  0  0  0  0  0  0  0  0  0
   12.1126   13.6812   21.9084 C   0  0  1  0  0  0  0  0  0  0  0  0
   11.9242   14.1712   20.5017 C   0  0  0  0  0  0  0  0  0  0  0  0
   10.7419   14.2713   19.9149 N   0  0  0  0  0  0  0  0  0  0  0  0
   11.0791   14.7418   18.6971 N   0  0  0  0  0  0  0  0  0  0  0  0
   12.4072   14.9226   18.6100 C   0  0  0  0  0  0  0  0  0  0  0  0
   12.9812   14.5818   19.7452 N   0  0  0  0  0  0  0  0  0  0  0  0
   12.8411   14.7512   22.7614 C   0  0  0  0  0  0  0  0  0  0  0  0
   12.0321   16.0452   22.8157 C   0  0  0  0  0  0  0  0  0  0  0  0
   13.1210   14.2166   24.1617 C   0  0  0  0  0  0  0  0  0  0  0  0
    9.3304   10.3766   24.2071 C   0  0  0  0  0  0  0  0  0  0  0  0
    8.3403    9.9545   24.9497 N   0  0  0  0  0  0  0  0  0  0  0  0
    7.5957   10.8884   25.6220 C   0  0  0  0  0  0  0  0  0  0  0  0
    6.4742   10.4830   26.3901 C   0  0  0  0  0  0  0  0  0  0  0  0
    5.7395   11.3974   27.0981 C   0  0  0  0  0  0  0  0  0  0  0  0
  1  2  1  0
  2  3  2  0
  3  4  1  0
  4  5  2  0
  5  6  1  0
  6  7  1  0
  7  8  1  0
  8  9  2  0
  8 10  1  0
 10 11  1  0
 11 12  2  0
 12 13  1  0
 13 14  1  0
 14 15  2  0
 10 16  1  1
 16 17  1  0
 16 18  1  0
  6 19  2  0
 19 20  1  0
 20 21  2  0
 21 22  1  0
 22 23  2  0
 23  2  1  0
 21  4  1  0
 15 11  1  0
M  END
>  <cnnaffinity>  (15) 
-6.05234

>  <cnnaffinityIC50>  (15) 
886.4617480848485 nanomolar

>  <smiles>  (15) 
CC1=CC2=CC(NC(=O)C(C3=NNC=N3)C(C)C)=CN=C2C=C1 Z3714463543

>  <ref_pdb>  (15) 
Ax0310a

>  <ref_mols>  (15) 
Ax0310a

>  <rationale>  (15) 
Enamine real space elaborations around a merge of x1097 and x0310.

>  <original SMILES>  (15) 
CC1=CC2=CC(NC(=O)C(C3=NNC=N3)C(C)C)=CN=C2C=C1

$$$$
Z3358472738
     RDKit          3D

 23 26  0  0  0  0  0  0  0  0999 V2000
    9.7628   13.4238   21.7185 O   0  0  0  0  0  0  0  0  0  0  0  0
   10.7775   13.0361   22.2590 C   0  0  0  0  0  0  0  0  0  0  0  0
   12.1512   13.6294   21.9283 C   0  0  0  0  0  0  0  0  0  0  0  0
   12.9502   13.9434   23.1564 C   0  0  0  0  0  0  0  0  0  0  0  0
   12.8237   15.0753   23.8207 N   0  0  0  0  0  0  0  0  0  0  0  0
   13.6397   14.8652   24.8841 N   0  0  0  0  0  0  0  0  0  0  0  0
   14.2297   13.6571   24.8065 C   0  0  0  0  0  0  0  0  0  0  0  0
   15.1968   13.1615   25.8095 C   0  0  0  0  0  0  0  0  0  0  0  0
   16.6655   13.5179   25.7323 C   0  0  0  0  0  0  0  0  0  0  0  0
   16.1995   12.1445   25.3638 C   0  0  0  0  0  0  0  0  0  0  0  0
   13.7758   13.0269   23.7282 N   0  0  0  0  0  0  0  0  0  0  0  0
   10.7657   12.0259   23.2009 N   0  0  0  0  0  0  0  0  0  0  0  0
    9.5784   11.7952   23.9554 C   0  0  0  0  0  0  0  0  0  0  0  0
    9.0272   10.4872   24.0566 C   0  0  0  0  0  0  0  0  0  0  0  0
    7.9462   10.2056   24.7404 N   0  0  0  0  0  0  0  0  0  0  0  0
    7.3455   11.2124   25.4369 C   0  0  0  0  0  0  0  0  0  0  0  0
    6.1619   10.9623   26.1887 C   0  0  0  0  0  0  0  0  0  0  0  0
    5.6158    9.7438   26.1181 F   0  0  0  0  0  0  0  0  0  0  0  0
    5.5845   11.9190   26.9768 C   0  0  0  0  0  0  0  0  0  0  0  0
    6.1705   13.2055   27.0500 C   0  0  0  0  0  0  0  0  0  0  0  0
    7.2772   13.5092   26.3070 C   0  0  0  0  0  0  0  0  0  0  0  0
    7.8594   12.5300   25.4627 C   0  0  0  0  0  0  0  0  0  0  0  0
    8.9677   12.8114   24.6342 C   0  0  0  0  0  0  0  0  0  0  0  0
  1  2  2  0
  2  3  1  0
  3  4  1  0
  4  5  2  0
  5  6  1  0
  6  7  1  0
  7  8  1  0
  8  9  1  0
  9 10  1  0
  7 11  2  0
  2 12  1  0
 12 13  1  0
 13 14  2  0
 14 15  1  0
 15 16  2  0
 16 17  1  0
 17 18  1  0
 17 19  2  0
 19 20  1  0
 20 21  2  0
 21 22  1  0
 22 23  2  0
 11  4  1  0
 23 13  1  0
 10  8  1  0
 22 16  1  0
M  END
>  <cnnaffinity>  (16) 
-6.0441

>  <cnnaffinityIC50>  (16) 
903.4414246950012 nanomolar

>  <smiles>  (16) 
O=C(CC1=NNC(C2CC2)=N1)NC1=CN=C2C(F)=CC=CC2=C1 Z3358472738

>  <ref_pdb>  (16) 
Ax0310a

>  <ref_mols>  (16) 
Ax0310a

>  <rationale>  (16) 
Enamine real space elaborations around a merge of x1097 and x0310.

>  <original SMILES>  (16) 
O=C(CC1=NNC(C2CC2)=N1)NC1=CN=C2C(F)=CC=CC2=C1

$$$$
Z2673144643
     RDKit          3D

 23 25  0  0  0  0  0  0  0  0999 V2000
   11.6915   16.8974   23.5310 N   0  0  0  0  0  0  0  0  0  0  0  0
   11.8265   16.0554   22.7353 C   0  0  0  0  0  0  0  0  0  0  0  0
   11.9601   14.9768   21.7284 C   0  0  0  0  0  0  0  0  0  0  0  0
   12.5624   13.7071   22.3581 C   0  0  0  0  0  0  0  0  0  0  0  0
   11.6421   13.1431   23.4270 C   0  0  0  0  0  0  0  0  0  0  0  0
   11.5084   13.7481   24.4806 O   0  0  0  0  0  0  0  0  0  0  0  0
   10.8522   12.0465   23.1222 N   0  0  0  0  0  0  0  0  0  0  0  0
    9.7661   11.6163   23.9157 C   0  0  0  0  0  0  0  0  0  0  0  0
    9.0980   12.5891   24.6593 C   0  0  0  0  0  0  0  0  0  0  0  0
    8.0101   12.2254   25.4476 C   0  0  0  0  0  0  0  0  0  0  0  0
    7.2940   13.1815   26.1815 C   0  0  0  0  0  0  0  0  0  0  0  0
    6.2038   12.7924   26.9661 C   0  0  0  0  0  0  0  0  0  0  0  0
    5.8294   11.4474   27.0273 C   0  0  0  0  0  0  0  0  0  0  0  0
    6.5408   10.4958   26.2879 C   0  0  0  0  0  0  0  0  0  0  0  0
    7.6271   10.8674   25.4906 C   0  0  0  0  0  0  0  0  0  0  0  0
    8.2636    9.9189   24.7828 N   0  0  0  0  0  0  0  0  0  0  0  0
    9.3068   10.2730   24.0032 C   0  0  0  0  0  0  0  0  0  0  0  0
   10.1815    8.8882   23.0097 Br  0  0  0  0  0  0  0  0  0  0  0  0
   10.5586   14.6201   21.1684 C   0  0  0  0  0  0  0  0  0  0  0  0
   10.2092   15.4976   19.9691 C   0  0  0  0  0  0  0  0  0  0  0  0
   11.1432   15.1455   18.7986 C   0  0  0  0  0  0  0  0  0  0  0  0
   12.5729   14.7918   19.2602 C   0  0  0  0  0  0  0  0  0  0  0  0
   12.9176   15.4524   20.6083 C   0  0  0  0  0  0  0  0  0  0  0  0
  1  2  3  0
  2  3  1  0
  3  4  1  0
  4  5  1  0
  5  6  2  0
  5  7  1  0
  7  8  1  0
  8  9  2  0
  9 10  1  0
 10 11  2  0
 11 12  1  0
 12 13  2  0
 13 14  1  0
 14 15  2  0
 15 16  1  0
 16 17  2  0
 17 18  1  0
  3 19  1  0
 19 20  1  0
 20 21  1  0
 21 22  1  0
 22 23  1  0
 23  3  1  0
 17  8  1  0
 15 10  1  0
M  END
>  <cnnaffinity>  (17) 
-6.03949

>  <cnnaffinityIC50>  (17) 
913.0824595517249 nanomolar

>  <smiles>  (17) 
N#CC1(CC(=O)NC2=CC3=CC=CC=C3N=C2Br)CCCCC1 Z2673144643

>  <ref_pdb>  (17) 
Ax0310a

>  <ref_mols>  (17) 
Ax0310a

>  <rationale>  (17) 
Enamine real space elaborations around a merge of x1097 and x0310.

>  <original SMILES>  (17) 
N#CC1(CC(=O)NC2=CC3=CC=CC=C3N=C2Br)CCCCC1

$$$$
Z4048901005
     RDKit          3D

 23 25  0  0  0  0  0  0  0  0999 V2000
   13.5498   15.4017   21.7274 C   0  0  0  0  0  0  0  0  0  0  0  0
   12.3871   15.0755   22.6514 C   0  0  0  0  0  0  0  0  0  0  0  0
   11.0464   15.1674   21.9119 C   0  0  0  0  0  0  0  0  0  0  0  0
   12.5464   13.6546   23.2078 C   0  0  2  0  0  0  0  0  0  0  0  0
   11.3529   13.3427   24.1026 C   0  0  0  0  0  0  0  0  0  0  0  0
   11.0829   14.0273   25.0697 O   0  0  0  0  0  0  0  0  0  0  0  0
   10.5938   12.2735   23.6882 N   0  0  0  0  0  0  0  0  0  0  0  0
    9.4244   11.8662   24.3302 C   0  0  0  0  0  0  0  0  0  0  0  0
    8.6156   12.7543   24.9901 C   0  0  0  0  0  0  0  0  0  0  0  0
    7.4726   12.2860   25.6650 C   0  0  0  0  0  0  0  0  0  0  0  0
    6.6377   13.1542   26.4126 C   0  0  0  0  0  0  0  0  0  0  0  0
    5.5378   12.6615   27.0643 C   0  0  0  0  0  0  0  0  0  0  0  0
    5.2288   11.2813   26.9843 C   0  0  0  0  0  0  0  0  0  0  0  0
    6.0276   10.4225   26.2766 C   0  0  0  0  0  0  0  0  0  0  0  0
    7.1754   10.9085   25.6044 C   0  0  0  0  0  0  0  0  0  0  0  0
    7.9689   10.0294   24.9158 N   0  0  0  0  0  0  0  0  0  0  0  0
    9.0149   10.4922   24.3221 C   0  0  0  0  0  0  0  0  0  0  0  0
    9.9962    9.3523   23.4229 Cl  0  0  0  0  0  0  0  0  0  0  0  0
   13.7700   13.3679   23.9572 N   0  0  0  0  0  0  0  0  0  0  0  0
   14.4684   14.0936   24.8486 C   0  0  0  0  0  0  0  0  0  0  0  0
   15.4302   13.3749   25.3908 N   0  0  0  0  0  0  0  0  0  0  0  0
   15.2616   12.1691   24.7809 C   0  0  0  0  0  0  0  0  0  0  0  0
   14.2597   12.1073   23.9313 N   0  0  0  0  0  0  0  0  0  0  0  0
  1  2  1  0
  2  3  1  0
  4  2  1  1
  4  5  1  0
  5  6  2  0
  5  7  1  0
  7  8  1  0
  8  9  2  0
  9 10  1  0
 10 11  2  0
 11 12  1  0
 12 13  2  0
 13 14  1  0
 14 15  2  0
 15 16  1  0
 16 17  2  0
 17 18  1  0
  4 19  1  0
 19 20  1  0
 20 21  2  0
 21 22  1  0
 22 23  2  0
 17  8  1  0
 23 19  1  0
 15 10  1  0
M  END
>  <cnnaffinity>  (18) 
-6.03719

>  <cnnaffinityIC50>  (18) 
917.9309219545733 nanomolar

>  <smiles>  (18) 
CC(C)C(C(=O)NC1=CC2=CC=CC=C2N=C1Cl)N1C=NC=N1 Z4048901005

>  <ref_pdb>  (18) 
Ax0310a

>  <ref_mols>  (18) 
Ax0310a

>  <rationale>  (18) 
Enamine real space elaborations around a merge of x1097 and x0310.

>  <original SMILES>  (18) 
CC(C)C(C(=O)NC1=CC2=CC=CC=C2N=C1Cl)N1C=NC=N1

$$$$
Z3867944408
     RDKit          3D

 23 26  0  0  0  0  0  0  0  0999 V2000
    9.5115   13.8330   21.5151 O   0  0  0  0  0  0  0  0  0  0  0  0
   10.6529   13.4143   21.6913 C   0  0  0  0  0  0  0  0  0  0  0  0
   10.8518   12.2568   22.4340 N   0  0  0  0  0  0  0  0  0  0  0  0
    9.9270   11.8096   23.4032 C   0  0  0  0  0  0  0  0  0  0  0  0
    9.1494   12.7769   24.0382 C   0  0  0  0  0  0  0  0  0  0  0  0
    8.2207   12.3833   24.9953 C   0  0  0  0  0  0  0  0  0  0  0  0
    7.4272   13.3378   25.6472 C   0  0  0  0  0  0  0  0  0  0  0  0
    6.4379   12.9322   26.5472 C   0  0  0  0  0  0  0  0  0  0  0  0
    5.3007   14.2277   27.3749 Br  0  0  0  0  0  0  0  0  0  0  0  0
    6.2683   11.5702   26.8194 C   0  0  0  0  0  0  0  0  0  0  0  0
    7.0963   10.6189   26.2041 C   0  0  0  0  0  0  0  0  0  0  0  0
    8.0752   11.0091   25.2878 C   0  0  0  0  0  0  0  0  0  0  0  0
    8.8322   10.0640   24.6995 N   0  0  0  0  0  0  0  0  0  0  0  0
    9.7431   10.4571   23.7836 C   0  0  0  0  0  0  0  0  0  0  0  0
   11.8633   14.3157   21.3469 C   0  0  1  0  0  0  0  0  0  0  0  0
   12.5579   13.9404   20.0160 C   0  0  0  0  0  0  0  0  0  0  0  0
   11.7091   14.2161   18.7561 C   0  0  0  0  0  0  0  0  0  0  0  0
   10.7532   15.3195   18.9334 N   0  0  0  0  0  0  0  0  0  0  0  0
    9.8595   15.7440   18.0206 N   0  0  0  0  0  0  0  0  0  0  0  0
    9.2560   16.7514   18.5343 N   0  0  0  0  0  0  0  0  0  0  0  0
    9.7007   16.9777   19.8026 N   0  0  0  0  0  0  0  0  0  0  0  0
   10.6069   16.0807   20.0610 C   0  0  0  0  0  0  0  0  0  0  0  0
   11.4627   15.8175   21.2789 C   0  0  0  0  0  0  0  0  0  0  0  0
  1  2  2  0
  2  3  1  0
  3  4  1  0
  4  5  2  0
  5  6  1  0
  6  7  2  0
  7  8  1  0
  8  9  1  0
  8 10  2  0
 10 11  1  0
 11 12  2  0
 12 13  1  0
 13 14  2  0
 15  2  1  6
 15 16  1  0
 16 17  1  0
 17 18  1  0
 18 19  1  0
 19 20  2  0
 20 21  1  0
 21 22  2  0
 22 23  1  0
 14  4  1  0
 23 15  1  0
 12  6  1  0
 22 18  1  0
M  END
>  <cnnaffinity>  (19) 
-6.03033

>  <cnnaffinityIC50>  (19) 
932.5454339928841 nanomolar

>  <smiles>  (19) 
O=C(NC1=CC2=CC(Br)=CC=C2N=C1)C1CCN2N=NN=C2C1 Z3867944408

>  <ref_pdb>  (19) 
Ax0310a

>  <ref_mols>  (19) 
Ax0310a

>  <rationale>  (19) 
Enamine real space elaborations around a merge of x1097 and x0310.

>  <original SMILES>  (19) 
O=C(NC1=CC2=CC(Br)=CC=C2N=C1)C1CCN2N=NN=C2C1

$$$$
Z5361503334
     RDKit          3D

 23 26  0  0  0  0  0  0  0  0999 V2000
   11.7627   13.6728   24.5991 O   0  0  0  0  0  0  0  0  0  0  0  0
   11.7316   13.1797   23.4876 C   0  0  0  0  0  0  0  0  0  0  0  0
   10.9353   12.1034   23.1816 N   0  0  0  0  0  0  0  0  0  0  0  0
    9.8162   11.7757   23.9467 C   0  0  0  0  0  0  0  0  0  0  0  0
    9.1643   12.7012   24.7264 C   0  0  0  0  0  0  0  0  0  0  0  0
    8.0135   12.3180   25.4487 C   0  0  0  0  0  0  0  0  0  0  0  0
    7.2536   13.2459   26.2088 C   0  0  0  0  0  0  0  0  0  0  0  0
    6.1758   12.8205   26.9460 C   0  0  0  0  0  0  0  0  0  0  0  0
    5.8257   11.4491   26.9572 C   0  0  0  0  0  0  0  0  0  0  0  0
    6.5310   10.5414   26.2101 C   0  0  0  0  0  0  0  0  0  0  0  0
    7.6333   10.9586   25.4234 C   0  0  0  0  0  0  0  0  0  0  0  0
    8.3006   10.0371   24.6600 N   0  0  0  0  0  0  0  0  0  0  0  0
    9.3057   10.4392   23.9599 C   0  0  0  0  0  0  0  0  0  0  0  0
   10.1028    9.2459   22.9629 Cl  0  0  0  0  0  0  0  0  0  0  0  0
   12.5408   13.6898   22.3112 C   0  0  2  0  0  0  0  0  0  0  0  0
   13.2206   15.0431   22.5824 C   0  0  0  0  0  0  0  0  0  0  0  0
   12.4613   15.6773   21.3992 C   0  0  0  0  0  0  0  0  0  0  0  0
   11.7074   14.3409   21.1396 C   0  0  2  0  0  0  0  0  0  0  0  0
   10.2246   14.3887   21.3039 C   0  0  0  0  0  0  0  0  0  0  0  0
    9.6306   14.7036   22.4544 N   0  0  0  0  0  0  0  0  0  0  0  0
    8.3288   14.6589   22.1119 N   0  0  0  0  0  0  0  0  0  0  0  0
    8.1847   14.3255   20.8199 C   0  0  0  0  0  0  0  0  0  0  0  0
    9.3702   14.1400   20.2768 N   0  0  0  0  0  0  0  0  0  0  0  0
  1  2  2  0
  2  3  1  0
  3  4  1  0
  4  5  2  0
  5  6  1  0
  6  7  2  0
  7  8  1  0
  8  9  2  0
  9 10  1  0
 10 11  2  0
 11 12  1  0
 12 13  2  0
 13 14  1  0
 15  2  1  1
 15 16  1  0
 16 17  1  0
 17 18  1  0
 18 19  1  1
 19 20  2  0
 20 21  1  0
 21 22  1  0
 22 23  2  0
 13  4  1  0
 18 15  1  0
 23 19  1  0
 11  6  1  0
M  END
>  <cnnaffinity>  (20) 
-6.02121

>  <cnnaffinityIC50>  (20) 
952.3355576028739 nanomolar

>  <smiles>  (20) 
O=C(NC1=CC2=CC=CC=C2N=C1Cl)[C@@H]1CC[C@@H]1C1=NNC=N1 Z5361503334

>  <ref_pdb>  (20) 
Ax0310a

>  <ref_mols>  (20) 
Ax0310a

>  <rationale>  (20) 
Enamine real space elaborations around a merge of x1097 and x0310.

>  <original SMILES>  (20) 
O=C(NC1=CC2=CC=CC=C2N=C1Cl)[C@@H]1CC[C@@H]1C1=NNC=N1

$$$$
Z3585618271
     RDKit          3D

 23 26  0  0  0  0  0  0  0  0999 V2000
    9.7622   13.4744   21.7744 O   0  0  0  0  0  0  0  0  0  0  0  0
   10.8043   13.0862   22.2629 C   0  0  0  0  0  0  0  0  0  0  0  0
   12.1553   13.7060   21.9031 C   0  0  0  0  0  0  0  0  0  0  0  0
   12.9685   14.0297   23.1273 C   0  0  0  0  0  0  0  0  0  0  0  0
   12.8410   15.1689   23.7766 N   0  0  0  0  0  0  0  0  0  0  0  0
   13.6381   14.9717   24.8565 N   0  0  0  0  0  0  0  0  0  0  0  0
   14.2333   13.7638   24.7975 C   0  0  0  0  0  0  0  0  0  0  0  0
   15.1646   13.2686   25.8332 C   0  0  0  0  0  0  0  0  0  0  0  0
   16.6451   13.5557   25.7712 C   0  0  0  0  0  0  0  0  0  0  0  0
   16.1268   12.1952   25.4322 C   0  0  0  0  0  0  0  0  0  0  0  0
   13.7859   13.1186   23.7238 N   0  0  0  0  0  0  0  0  0  0  0  0
   10.8530   12.0511   23.1712 N   0  0  0  0  0  0  0  0  0  0  0  0
    9.6980   11.7257   23.9304 C   0  0  0  0  0  0  0  0  0  0  0  0
    8.9540   12.6879   24.5572 C   0  0  0  0  0  0  0  0  0  0  0  0
    7.8907   12.3029   25.4019 C   0  0  0  0  0  0  0  0  0  0  0  0
    7.1560   13.2460   26.1681 C   0  0  0  0  0  0  0  0  0  0  0  0
    6.1525   12.7986   26.9744 C   0  0  0  0  0  0  0  0  0  0  0  0
    5.4524   13.6692   27.7229 F   0  0  0  0  0  0  0  0  0  0  0  0
    5.8053   11.4334   27.0620 C   0  0  0  0  0  0  0  0  0  0  0  0
    6.5081   10.5184   26.3244 C   0  0  0  0  0  0  0  0  0  0  0  0
    7.5853   10.9240   25.4905 C   0  0  0  0  0  0  0  0  0  0  0  0
    8.3001    9.9738   24.8129 N   0  0  0  0  0  0  0  0  0  0  0  0
    9.3187   10.3674   24.0910 C   0  0  0  0  0  0  0  0  0  0  0  0
  1  2  2  0
  2  3  1  0
  3  4  1  0
  4  5  2  0
  5  6  1  0
  6  7  1  0
  7  8  1  0
  8  9  1  0
  9 10  1  0
  7 11  2  0
  2 12  1  0
 12 13  1  0
 13 14  2  0
 14 15  1  0
 15 16  2  0
 16 17  1  0
 17 18  1  0
 17 19  2  0
 19 20  1  0
 20 21  2  0
 21 22  1  0
 22 23  2  0
 11  4  1  0
 23 13  1  0
 10  8  1  0
 21 15  1  0
M  END
>  <cnnaffinity>  (21) 
-6.01047

>  <cnnaffinityIC50>  (21) 
976.1802122413868 nanomolar

>  <smiles>  (21) 
O=C(CC1=NNC(C2CC2)=N1)NC1=CC2=CC(F)=CC=C2N=C1 Z3585618271

>  <ref_pdb>  (21) 
Ax0310a

>  <ref_mols>  (21) 
Ax0310a

>  <rationale>  (21) 
Enamine real space elaborations around a merge of x1097 and x0310.

>  <original SMILES>  (21) 
O=C(CC1=NNC(C2CC2)=N1)NC1=CC2=CC(F)=CC=C2N=C1

$$$$
PV-006665240382
     RDKit          3D

 28 32  0  0  0  0  0  0  0  0999 V2000
    4.6740   10.8858   27.9242 C   0  0  0  0  0  0  0  0  0  0  0  0
    5.8060   11.3554   27.0425 C   0  0  0  0  0  0  0  0  0  0  0  0
    6.1133   12.7335   26.9833 C   0  0  0  0  0  0  0  0  0  0  0  0
    7.1294   13.2552   26.2192 C   0  0  0  0  0  0  0  0  0  0  0  0
    7.3030   14.7531   26.2427 C   0  0  0  0  0  0  0  0  0  0  0  0
    7.9477   12.3434   25.4722 C   0  0  0  0  0  0  0  0  0  0  0  0
    9.1036   12.7009   24.7231 C   0  0  0  0  0  0  0  0  0  0  0  0
    9.5547   14.1186   24.5472 C   0  0  0  0  0  0  0  0  0  0  0  0
    9.0453   14.8568   23.7226 O   0  0  0  0  0  0  0  0  0  0  0  0
   10.5248   14.5233   25.4222 N   0  0  0  0  0  0  0  0  0  0  0  0
   11.3121   15.7041   25.1155 C   0  0  0  0  0  0  0  0  0  0  0  0
   12.2254   15.4572   23.9084 C   0  0  0  0  0  0  0  0  0  0  0  0
   13.1150   14.3575   24.2146 N   0  0  0  0  0  0  0  0  0  0  0  0
   14.0988   14.3526   25.1421 C   0  0  0  0  0  0  0  0  0  0  0  0
   14.4938   13.0394   25.2039 C   0  0  0  0  0  0  0  0  0  0  0  0
   15.5688   12.4325   26.0018 C   0  0  0  0  0  0  0  0  0  0  0  0
   16.9625   12.9773   25.8704 C   0  0  0  0  0  0  0  0  0  0  0  0
   16.6116   11.6419   25.2784 C   0  0  0  0  0  0  0  0  0  0  0  0
   13.7008   12.3181   24.3615 N   0  0  0  0  0  0  0  0  0  0  0  0
   12.8637   13.1228   23.7837 N   0  0  0  0  0  0  0  0  0  0  0  0
    9.8148   11.7216   24.0832 C   0  0  0  0  0  0  0  0  0  0  0  0
    9.3648   10.3819   24.0952 C   0  0  0  0  0  0  0  0  0  0  0  0
   10.1229    9.4061   23.2436 C   0  0  0  0  0  0  0  0  0  0  0  0
    9.3471    8.6590   22.2085 C   0  0  0  0  0  0  0  0  0  0  0  0
   10.2538    9.7770   21.7873 C   0  0  0  0  0  0  0  0  0  0  0  0
    8.3094   10.0069   24.7750 N   0  0  0  0  0  0  0  0  0  0  0  0
    7.6282   10.9489   25.4943 C   0  0  0  0  0  0  0  0  0  0  0  0
    6.5492   10.4918   26.2871 C   0  0  0  0  0  0  0  0  0  0  0  0
  1  2  1  0
  2  3  2  0
  3  4  1  0
  4  5  1  0
  4  6  2  0
  6  7  1  0
  7  8  1  0
  8  9  2  0
  8 10  1  0
 10 11  1  0
 11 12  1  0
 12 13  1  0
 13 14  1  0
 14 15  2  0
 15 16  1  0
 16 17  1  0
 17 18  1  0
 15 19  1  0
 19 20  2  0
  7 21  2  0
 21 22  1  0
 22 23  1  0
 23 24  1  0
 24 25  1  0
 22 26  2  0
 26 27  1  0
 27 28  2  0
 28  2  1  0
 27  6  1  0
 20 13  1  0
 25 23  1  0
 18 16  1  0
M  END
>  <cnnaffinity>  (22) 
-6.48334

>  <cnnaffinityIC50>  (22) 
328.59428061273564 nanomolar

>  <smiles>  (22) 
CC1=CC(C)=C2C(C(=O)NCCN3C=C(C4CC4)N=N3)=CC(C3CC3)=NC2=C1 PV-006665240382

>  <ref_pdb>  (22) 
Ax0310a

>  <ref_mols>  (22) 
Ax0739a

>  <rationale>  (22) 
Enamine real space elaborations around a merge of x1097 and x0739.

>  <original SMILES>  (22) 
CC1=CC(C)=C2C(C(=O)NCCN3C=C(C4CC4)N=N3)=CC(C3CC3)=NC2=C1

$$$$
Z1355820080
     RDKit          3D

 31 35  0  0  0  0  0  0  0  0999 V2000
    4.7024   10.8802   27.9325 C   0  0  0  0  0  0  0  0  0  0  0  0
    5.8230   11.3604   27.0404 C   0  0  0  0  0  0  0  0  0  0  0  0
    6.1283   12.7401   26.9831 C   0  0  0  0  0  0  0  0  0  0  0  0
    7.1440   13.2639   26.2202 C   0  0  0  0  0  0  0  0  0  0  0  0
    7.3238   14.7621   26.2478 C   0  0  0  0  0  0  0  0  0  0  0  0
    7.9638   12.3546   25.4712 C   0  0  0  0  0  0  0  0  0  0  0  0
    9.1344   12.7058   24.7418 C   0  0  0  0  0  0  0  0  0  0  0  0
    9.6301   14.1041   24.5749 C   0  0  0  0  0  0  0  0  0  0  0  0
    9.0941   14.8855   23.8123 O   0  0  0  0  0  0  0  0  0  0  0  0
   10.7084   14.4223   25.3515 N   0  0  0  0  0  0  0  0  0  0  0  0
   11.5290   15.5717   25.0179 C   0  0  0  0  0  0  0  0  0  0  0  0
   12.3651   15.3293   23.7540 C   0  0  0  0  0  0  0  0  0  0  0  0
   13.3039   14.2016   24.0205 C   0  0  0  0  0  0  0  0  0  0  0  0
   13.0989   12.9710   23.6360 N   0  0  0  0  0  0  0  0  0  0  0  0
   14.1566   12.2759   24.2130 O   0  0  0  0  0  0  0  0  0  0  0  0
   14.8753   13.1676   24.8984 C   0  0  0  0  0  0  0  0  0  0  0  0
   16.0718   12.7185   25.6299 C   0  0  0  0  0  0  0  0  0  0  0  0
   16.4806   11.3872   25.5658 C   0  0  0  0  0  0  0  0  0  0  0  0
   17.6302   11.0304   26.2603 C   0  0  0  0  0  0  0  0  0  0  0  0
   18.3091   12.0044   26.9844 C   0  0  0  0  0  0  0  0  0  0  0  0
   17.8080   13.3041   26.9840 C   0  0  0  0  0  0  0  0  0  0  0  0
   16.7083   13.6635   26.3234 N   0  0  0  0  0  0  0  0  0  0  0  0
   14.3904   14.3717   24.8318 N   0  0  0  0  0  0  0  0  0  0  0  0
    9.8402   11.7311   24.0929 C   0  0  0  0  0  0  0  0  0  0  0  0
    9.3756   10.3982   24.0819 C   0  0  0  0  0  0  0  0  0  0  0  0
   10.1303    9.4259   23.2233 C   0  0  0  0  0  0  0  0  0  0  0  0
   10.2863    9.8160   21.7754 C   0  0  0  0  0  0  0  0  0  0  0  0
    9.3392    8.7181   22.1689 C   0  0  0  0  0  0  0  0  0  0  0  0
    8.3117   10.0224   24.7493 N   0  0  0  0  0  0  0  0  0  0  0  0
    7.6361   10.9619   25.4773 C   0  0  0  0  0  0  0  0  0  0  0  0
    6.5608   10.5034   26.2726 C   0  0  0  0  0  0  0  0  0  0  0  0
  1  2  1  0
  2  3  2  0
  3  4  1  0
  4  5  1  0
  4  6  2  0
  6  7  1  0
  7  8  1  0
  8  9  2  0
  8 10  1  0
 10 11  1  0
 11 12  1  0
 12 13  1  0
 13 14  2  0
 14 15  1  0
 15 16  1  0
 16 17  1  0
 17 18  2  0
 18 19  1  0
 19 20  2  0
 20 21  1  0
 21 22  2  0
 16 23  2  0
  7 24  2  0
 24 25  1  0
 25 26  1  0
 26 27  1  0
 27 28  1  0
 25 29  2  0
 29 30  1  0
 30 31  2  0
 31  2  1  0
 30  6  1  0
 23 13  1  0
 28 26  1  0
 22 17  1  0
M  END
>  <cnnaffinity>  (23) 
-6.47735

>  <cnnaffinityIC50>  (23) 
333.1578110707929 nanomolar

>  <smiles>  (23) 
CC1=CC(C)=C2C(C(=O)NCCC3=NOC(C4=CC=CC=N4)=N3)=CC(C3CC3)=NC2=C1 Z1355820080

>  <ref_pdb>  (23) 
Ax0310a

>  <ref_mols>  (23) 
Ax0739a

>  <rationale>  (23) 
Enamine real space elaborations around a merge of x1097 and x0739.

>  <original SMILES>  (23) 
CC1=CC(C)=C2C(C(=O)NCCC3=NOC(C4=CC=CC=N4)=N3)=CC(C3CC3)=NC2=C1

$$$$
PV-004577236880
     RDKit          3D

 28 31  0  0  0  0  0  0  0  0999 V2000
   16.0740   13.8917   27.7938 C   0  0  0  0  0  0  0  0  0  0  0  0
   16.5509   12.8273   26.8433 C   0  0  0  0  0  0  0  0  0  0  0  0
   15.9382   12.3898   25.7369 C   0  0  0  0  0  0  0  0  0  0  0  0
   14.7678   12.9886   25.0984 C   0  0  0  0  0  0  0  0  0  0  0  0
   14.2374   14.2584   25.1710 C   0  0  0  0  0  0  0  0  0  0  0  0
   13.2356   14.2550   24.2649 N   0  0  0  0  0  0  0  0  0  0  0  0
   12.3295   15.3449   23.9538 C   0  0  0  0  0  0  0  0  0  0  0  0
   11.4109   15.6188   25.1498 C   0  0  0  0  0  0  0  0  0  0  0  0
   10.5917   14.4592   25.4501 N   0  0  0  0  0  0  0  0  0  0  0  0
    9.6124   14.0919   24.5698 C   0  0  0  0  0  0  0  0  0  0  0  0
    9.1481   14.8325   23.7221 O   0  0  0  0  0  0  0  0  0  0  0  0
    9.1255   12.6890   24.7282 C   0  0  0  0  0  0  0  0  0  0  0  0
    9.8275   11.7183   24.0665 C   0  0  0  0  0  0  0  0  0  0  0  0
    9.3750   10.3781   24.0687 C   0  0  0  0  0  0  0  0  0  0  0  0
   10.1225    9.4027   23.2049 C   0  0  0  0  0  0  0  0  0  0  0  0
    9.3642    8.6626   22.1460 C   0  0  0  0  0  0  0  0  0  0  0  0
   10.2542    9.8022   21.7571 C   0  0  0  0  0  0  0  0  0  0  0  0
    8.3245    9.9983   24.7537 N   0  0  0  0  0  0  0  0  0  0  0  0
    7.6541   10.9357   25.4913 C   0  0  0  0  0  0  0  0  0  0  0  0
    6.5689   10.4893   26.2805 C   0  0  0  0  0  0  0  0  0  0  0  0
    5.8314   11.3565   27.0381 C   0  0  0  0  0  0  0  0  0  0  0  0
    4.6948   10.8855   27.9117 C   0  0  0  0  0  0  0  0  0  0  0  0
    6.1480   12.7315   26.9947 C   0  0  0  0  0  0  0  0  0  0  0  0
    7.1642   13.2476   26.2286 C   0  0  0  0  0  0  0  0  0  0  0  0
    7.3293   14.7473   26.2339 C   0  0  0  0  0  0  0  0  0  0  0  0
    7.9755   12.3306   25.4813 C   0  0  0  0  0  0  0  0  0  0  0  0
   13.1038   13.0528   23.7079 N   0  0  0  0  0  0  0  0  0  0  0  0
   14.0292   12.2847   24.1903 N   0  0  0  0  0  0  0  0  0  0  0  0
  1  2  1  0
  2  3  2  3
  3  4  1  0
  4  5  2  0
  5  6  1  0
  6  7  1  0
  7  8  1  0
  8  9  1  0
  9 10  1  0
 10 11  2  0
 10 12  1  0
 12 13  2  0
 13 14  1  0
 14 15  1  0
 15 16  1  0
 16 17  1  0
 14 18  2  0
 18 19  1  0
 19 20  2  0
 20 21  1  0
 21 22  1  0
 21 23  2  0
 23 24  1  0
 24 25  1  0
 24 26  2  0
  6 27  1  0
 27 28  2  0
 28  4  1  0
 26 12  1  0
 17 15  1  0
 26 19  1  0
M  END
>  <cnnaffinity>  (24) 
-6.4421

>  <cnnaffinityIC50>  (24) 
361.32665452345185 nanomolar

>  <smiles>  (24) 
CC=CC1=CN(CCNC(=O)C2=CC(C3CC3)=NC3=CC(C)=CC(C)=C23)N=N1 PV-004577236880

>  <ref_pdb>  (24) 
Ax0310a

>  <ref_mols>  (24) 
Ax0739a

>  <rationale>  (24) 
Enamine real space elaborations around a merge of x1097 and x0739.

>  <original SMILES>  (24) 
CC=CC1=CN(CCNC(=O)C2=CC(C3CC3)=NC3=CC(C)=CC(C)=C23)N=N1

$$$$
Z1457887361
     RDKit          3D

 29 33  0  0  0  0  0  0  0  0999 V2000
    4.7153   10.8988   27.8976 C   0  0  0  0  0  0  0  0  0  0  0  0
    5.8611   11.4082   27.0569 C   0  0  0  0  0  0  0  0  0  0  0  0
    6.1271   12.7945   26.9733 C   0  0  0  0  0  0  0  0  0  0  0  0
    7.1791   13.3166   26.2501 C   0  0  0  0  0  0  0  0  0  0  0  0
    7.2864   14.8151   26.1171 C   0  0  0  0  0  0  0  0  0  0  0  0
    8.0857   12.4095   25.6100 C   0  0  0  0  0  0  0  0  0  0  0  0
    9.2687   12.7683   24.8866 C   0  0  0  0  0  0  0  0  0  0  0  0
    9.9490   14.1131   24.9015 C   0  0  0  0  0  0  0  0  0  0  0  0
   10.2658   14.7120   25.9125 O   0  0  0  0  0  0  0  0  0  0  0  0
   10.3051   14.6086   23.6509 N   0  0  0  0  0  0  0  0  0  0  0  0
    9.4911   14.4953   22.5035 C   0  0  0  0  0  0  0  0  0  0  0  0
    8.1894   13.9749   22.5272 C   0  0  0  0  0  0  0  0  0  0  0  0
    7.4877   13.8066   21.3499 C   0  0  0  0  0  0  0  0  0  0  0  0
    8.0752   14.1671   20.1435 C   0  0  0  0  0  0  0  0  0  0  0  0
    9.3155   14.7679   20.1066 C   0  0  0  0  0  0  0  0  0  0  0  0
    9.9914   14.9932   21.2913 C   0  0  0  0  0  0  0  0  0  0  0  0
   11.1654   15.7542   21.2929 N   0  0  0  0  0  0  0  0  0  0  0  0
   11.8027   16.1486   22.4407 C   0  0  0  0  0  0  0  0  0  0  0  0
   12.4844   17.1500   22.4931 O   0  0  0  0  0  0  0  0  0  0  0  0
   11.6589   15.1741   23.5837 C   0  0  2  0  0  0  0  0  0  0  0  0
   12.7183   14.0700   23.4645 C   0  0  0  0  0  0  0  0  0  0  0  0
    9.8830   11.8162   24.1197 C   0  0  0  0  0  0  0  0  0  0  0  0
    9.4486   10.4761   24.1348 C   0  0  0  0  0  0  0  0  0  0  0  0
   10.1661    9.5027   23.2514 C   0  0  0  0  0  0  0  0  0  0  0  0
   10.2796    9.8765   21.7987 C   0  0  0  0  0  0  0  0  0  0  0  0
    9.3427    8.7895   22.2273 C   0  0  0  0  0  0  0  0  0  0  0  0
    8.4269   10.0847   24.8542 N   0  0  0  0  0  0  0  0  0  0  0  0
    7.7570   11.0185   25.5929 C   0  0  0  0  0  0  0  0  0  0  0  0
    6.6551   10.5533   26.3430 C   0  0  0  0  0  0  0  0  0  0  0  0
  1  2  1  0
  2  3  2  0
  3  4  1  0
  4  5  1  0
  4  6  2  0
  6  7  1  0
  7  8  1  0
  8  9  2  0
  8 10  1  0
 10 11  1  0
 11 12  2  0
 12 13  1  0
 13 14  2  0
 14 15  1  0
 15 16  2  0
 16 17  1  0
 17 18  1  0
 18 19  2  0
 18 20  1  0
 20 21  1  6
  7 22  2  0
 22 23  1  0
 23 24  1  0
 24 25  1  0
 25 26  1  0
 23 27  2  0
 27 28  1  0
 28 29  2  0
 29  2  1  0
 28  6  1  0
 20 10  1  0
 26 24  1  0
 16 11  1  0
M  END
>  <cnnaffinity>  (25) 
-6.39416

>  <cnnaffinityIC50>  (25) 
403.4967118989989 nanomolar

>  <smiles>  (25) 
CC1=CC(C)=C2C(C(=O)N3C4=CC=CC=C4NC(=O)C3C)=CC(C3CC3)=NC2=C1 Z1457887361

>  <ref_pdb>  (25) 
Ax0310a

>  <ref_mols>  (25) 
Ax0739a

>  <rationale>  (25) 
Enamine real space elaborations around a merge of x1097 and x0739.

>  <original SMILES>  (25) 
CC1=CC(C)=C2C(C(=O)N3C4=CC=CC=C4NC(=O)C3C)=CC(C3CC3)=NC2=C1

$$$$
Z1667922208
     RDKit          3D

 28 32  0  0  0  0  0  0  0  0999 V2000
    4.9518   11.0007   27.5576 C   0  0  0  0  0  0  0  0  0  0  0  0
    6.0931   11.6518   26.8376 C   0  0  0  0  0  0  0  0  0  0  0  0
    6.4540   12.9904   27.0410 C   0  0  0  0  0  0  0  0  0  0  0  0
    7.5525   13.5621   26.3725 C   0  0  0  0  0  0  0  0  0  0  0  0
    7.8492   15.0254   26.5803 C   0  0  0  0  0  0  0  0  0  0  0  0
    8.3109   12.7605   25.4859 C   0  0  0  0  0  0  0  0  0  0  0  0
    9.4657   13.2105   24.7989 C   0  0  0  0  0  0  0  0  0  0  0  0
   10.1845   14.5064   25.0257 C   0  0  0  0  0  0  0  0  0  0  0  0
   10.4371   14.9216   26.1540 O   0  0  0  0  0  0  0  0  0  0  0  0
   10.8332   15.0455   23.9059 N   0  0  0  0  0  0  0  0  0  0  0  0
   12.1821   15.6056   23.9556 C   0  0  0  0  0  0  0  0  0  0  0  0
   13.0100   14.9222   22.8454 C   0  0  0  0  0  0  0  0  0  0  0  0
   12.4382   15.1349   21.5317 O   0  0  0  0  0  0  0  0  0  0  0  0
   11.0819   14.9178   21.4405 C   0  0  0  0  0  0  0  0  0  0  0  0
   10.5402   14.7656   20.2155 N   0  0  0  0  0  0  0  0  0  0  0  0
    9.2252   14.4949   20.1248 C   0  0  0  0  0  0  0  0  0  0  0  0
    8.3884   14.3717   21.2434 C   0  0  0  0  0  0  0  0  0  0  0  0
    6.5278   13.9550   21.1174 Br  0  0  0  0  0  0  0  0  0  0  0  0
    8.9314   14.5553   22.5009 C   0  0  0  0  0  0  0  0  0  0  0  0
   10.2906   14.8340   22.6196 C   0  0  0  0  0  0  0  0  0  0  0  0
   10.0136   12.3220   23.8508 C   0  0  0  0  0  0  0  0  0  0  0  0
    9.4908   11.0499   23.6452 C   0  0  0  0  0  0  0  0  0  0  0  0
   10.0816   10.1543   22.5938 C   0  0  0  0  0  0  0  0  0  0  0  0
   11.1901    9.1599   22.9330 C   0  0  0  0  0  0  0  0  0  0  0  0
    9.7628    8.6671   22.7226 C   0  0  0  0  0  0  0  0  0  0  0  0
    8.4620   10.6071   24.3672 N   0  0  0  0  0  0  0  0  0  0  0  0
    7.8889   11.4257   25.2513 C   0  0  0  0  0  0  0  0  0  0  0  0
    6.8143   10.8898   25.9321 C   0  0  0  0  0  0  0  0  0  0  0  0
  1  2  1  0
  2  3  2  0
  3  4  1  0
  4  5  1  0
  4  6  2  0
  6  7  1  0
  7  8  1  0
  8  9  2  0
  8 10  1  0
 10 11  1  0
 11 12  1  0
 12 13  1  0
 13 14  1  0
 14 15  2  0
 15 16  1  0
 16 17  2  0
 17 18  1  0
 17 19  1  0
 19 20  2  0
  7 21  2  0
 21 22  1  0
 22 23  1  0
 23 24  1  0
 24 25  1  0
 22 26  2  0
 26 27  1  0
 27 28  2  0
 28  2  1  0
 27  6  1  0
 20 10  1  0
 25 23  1  0
 20 14  1  0
M  END
>  <cnnaffinity>  (26) 
-6.38636

>  <cnnaffinityIC50>  (26) 
410.8090477225613 nanomolar

>  <smiles>  (26) 
CC1=CC(C)=C2C(C(=O)N3CCOC4=NC=C(Br)C=C43)=CC(C3CC3)=NC2=C1 Z1667922208

>  <ref_pdb>  (26) 
Ax0310a

>  <ref_mols>  (26) 
Ax0739a

>  <rationale>  (26) 
Enamine real space elaborations around a merge of x1097 and x0739.

>  <original SMILES>  (26) 
CC1=CC(C)=C2C(C(=O)N3CCOC4=NC=C(Br)C=C43)=CC(C3CC3)=NC2=C1

$$$$
Z1354868948
     RDKit          3D

 28 31  0  0  0  0  0  0  0  0999 V2000
   15.0616   13.0657   27.2637 C   0  0  0  0  0  0  0  0  0  0  0  0
   15.8544   13.4994   26.0420 C   0  0  0  0  0  0  0  0  0  0  0  0
   15.0297   14.4036   25.1386 C   0  0  0  0  0  0  0  0  0  0  0  0
   13.8806   13.7602   24.3679 C   0  0  0  0  0  0  0  0  0  0  0  0
   13.2071   14.7672   23.5513 N   0  0  0  0  0  0  0  0  0  0  0  0
   13.7054   15.1087   22.3520 N   0  0  0  0  0  0  0  0  0  0  0  0
   13.0428   16.1350   21.9507 N   0  0  0  0  0  0  0  0  0  0  0  0
   12.1262   16.5046   22.8697 N   0  0  0  0  0  0  0  0  0  0  0  0
   12.2368   15.6497   23.8608 C   0  0  0  0  0  0  0  0  0  0  0  0
   11.4328   15.6205   25.1276 C   0  0  0  0  0  0  0  0  0  0  0  0
   10.7201   14.3721   25.3241 N   0  0  0  0  0  0  0  0  0  0  0  0
    9.6460   14.0641   24.5373 C   0  0  0  0  0  0  0  0  0  0  0  0
    9.1289   14.8487   23.7657 O   0  0  0  0  0  0  0  0  0  0  0  0
    9.1312   12.6673   24.7090 C   0  0  0  0  0  0  0  0  0  0  0  0
    9.7951   11.6826   24.0325 C   0  0  0  0  0  0  0  0  0  0  0  0
    9.3426   10.3444   24.0736 C   0  0  0  0  0  0  0  0  0  0  0  0
   10.0904    9.3633   23.2216 C   0  0  0  0  0  0  0  0  0  0  0  0
    9.3260    8.6285   22.1691 C   0  0  0  0  0  0  0  0  0  0  0  0
   10.2324    9.7534   21.7727 C   0  0  0  0  0  0  0  0  0  0  0  0
    8.2995    9.9782   24.7765 N   0  0  0  0  0  0  0  0  0  0  0  0
    7.6395   10.9332   25.5007 C   0  0  0  0  0  0  0  0  0  0  0  0
    6.5525   10.4922   26.2926 C   0  0  0  0  0  0  0  0  0  0  0  0
    5.8194   11.3639   27.0479 C   0  0  0  0  0  0  0  0  0  0  0  0
    4.6713   10.9090   27.9173 C   0  0  0  0  0  0  0  0  0  0  0  0
    6.1546   12.7360   27.0007 C   0  0  0  0  0  0  0  0  0  0  0  0
    7.1871   13.2415   26.2463 C   0  0  0  0  0  0  0  0  0  0  0  0
    7.4006   14.7342   26.2927 C   0  0  0  0  0  0  0  0  0  0  0  0
    7.9812   12.3237   25.4806 C   0  0  0  0  0  0  0  0  0  0  0  0
  1  2  1  0
  2  3  1  0
  3  4  1  0
  4  5  1  0
  5  6  1  0
  6  7  2  0
  7  8  1  0
  8  9  2  0
  9 10  1  0
 10 11  1  0
 11 12  1  0
 12 13  2  0
 12 14  1  0
 14 15  2  0
 15 16  1  0
 16 17  1  0
 17 18  1  0
 18 19  1  0
 16 20  2  0
 20 21  1  0
 21 22  2  0
 22 23  1  0
 23 24  1  0
 23 25  2  0
 25 26  1  0
 26 27  1  0
 26 28  2  0
  9  5  1  0
 28 14  1  0
 19 17  1  0
 28 21  1  0
M  END
>  <cnnaffinity>  (27) 
-6.33407

>  <cnnaffinityIC50>  (27) 
463.3722269381639 nanomolar

>  <smiles>  (27) 
CCCCN1N=NN=C1CNC(=O)C1=CC(C2CC2)=NC2=CC(C)=CC(C)=C12 Z1354868948

>  <ref_pdb>  (27) 
Ax0310a

>  <ref_mols>  (27) 
Ax0739a

>  <rationale>  (27) 
Enamine real space elaborations around a merge of x1097 and x0739.

>  <original SMILES>  (27) 
CCCCN1N=NN=C1CNC(=O)C1=CC(C2CC2)=NC2=CC(C)=CC(C)=C12

$$$$
PV-005666289285
     RDKit          3D

 28 31  0  0  0  0  0  0  0  0999 V2000
    4.6789   10.8781   27.9170 C   0  0  0  0  0  0  0  0  0  0  0  0
    5.8119   11.3539   27.0407 C   0  0  0  0  0  0  0  0  0  0  0  0
    6.1413   12.7283   26.9976 C   0  0  0  0  0  0  0  0  0  0  0  0
    7.1602   13.2360   26.2269 C   0  0  0  0  0  0  0  0  0  0  0  0
    7.3620   14.7307   26.2518 C   0  0  0  0  0  0  0  0  0  0  0  0
    7.9548   12.3165   25.4627 C   0  0  0  0  0  0  0  0  0  0  0  0
    9.1109   12.6585   24.7035 C   0  0  0  0  0  0  0  0  0  0  0  0
    9.6395   14.0471   24.5577 C   0  0  0  0  0  0  0  0  0  0  0  0
    9.1159   14.8654   23.8230 O   0  0  0  0  0  0  0  0  0  0  0  0
   10.7419   14.2953   25.3141 N   0  0  0  0  0  0  0  0  0  0  0  0
   11.5671   15.4563   25.0981 C   0  0  0  0  0  0  0  0  0  0  0  0
   12.7692   15.1283   24.2040 C   0  0  2  0  0  0  0  0  0  0  0  0
   12.3904   14.6185   22.8242 C   0  0  0  0  0  0  0  0  0  0  0  0
   13.6523   14.2083   24.9170 N   0  0  0  0  0  0  0  0  0  0  0  0
   14.4471   14.5248   25.9686 C   0  0  0  0  0  0  0  0  0  0  0  0
   14.9407   13.3235   26.4031 C   0  0  0  0  0  0  0  0  0  0  0  0
   15.8736   13.0448   27.5468 C   0  0  0  0  0  0  0  0  0  0  0  0
   15.2176   12.8908   28.7954 O   0  0  0  0  0  0  0  0  0  0  0  0
   14.4050   12.3478   25.6208 N   0  0  0  0  0  0  0  0  0  0  0  0
   13.6149   12.8890   24.7416 N   0  0  0  0  0  0  0  0  0  0  0  0
    9.7845   11.6744   24.0331 C   0  0  0  0  0  0  0  0  0  0  0  0
    9.3361   10.3372   24.0640 C   0  0  0  0  0  0  0  0  0  0  0  0
   10.0953    9.3574   23.2157 C   0  0  0  0  0  0  0  0  0  0  0  0
   10.2596    9.7505   21.7707 C   0  0  0  0  0  0  0  0  0  0  0  0
    9.3270    8.6397   22.1508 C   0  0  0  0  0  0  0  0  0  0  0  0
    8.2846    9.9712   24.7567 N   0  0  0  0  0  0  0  0  0  0  0  0
    7.6174   10.9255   25.4760 C   0  0  0  0  0  0  0  0  0  0  0  0
    6.5331   10.4861   26.2683 C   0  0  0  0  0  0  0  0  0  0  0  0
  1  2  1  0
  2  3  2  0
  3  4  1  0
  4  5  1  0
  4  6  2  0
  6  7  1  0
  7  8  1  0
  8  9  2  0
  8 10  1  0
 10 11  1  0
 11 12  1  0
 12 13  1  6
 12 14  1  0
 14 15  1  0
 15 16  2  0
 16 17  1  0
 17 18  1  0
 16 19  1  0
 19 20  2  0
  7 21  2  0
 21 22  1  0
 22 23  1  0
 23 24  1  0
 24 25  1  0
 22 26  2  0
 26 27  1  0
 27 28  2  0
 28  2  1  0
 27  6  1  0
 20 14  1  0
 25 23  1  0
M  END
>  <cnnaffinity>  (28) 
-6.32944

>  <cnnaffinityIC50>  (28) 
468.33865027993164 nanomolar

>  <smiles>  (28) 
CC1=CC(C)=C2C(C(=O)NC[C@H](C)N3C=C(CO)N=N3)=CC(C3CC3)=NC2=C1 PV-005666289285

>  <ref_pdb>  (28) 
Ax0310a

>  <ref_mols>  (28) 
Ax0739a

>  <rationale>  (28) 
Enamine real space elaborations around a merge of x1097 and x0739.

>  <original SMILES>  (28) 
CC1=CC(C)=C2C(C(=O)NC[C@H](C)N3C=C(CO)N=N3)=CC(C3CC3)=NC2=C1

$$$$
Z1355126917
     RDKit          3D

 31 35  0  0  0  0  0  0  0  0999 V2000
    4.8337   10.3143   27.5796 C   0  0  0  0  0  0  0  0  0  0  0  0
    5.8241   11.0360   26.7027 C   0  0  0  0  0  0  0  0  0  0  0  0
    6.0218   12.4212   26.8799 C   0  0  0  0  0  0  0  0  0  0  0  0
    6.9323   13.1633   26.1629 C   0  0  0  0  0  0  0  0  0  0  0  0
    6.9091   14.6470   26.4559 C   0  0  0  0  0  0  0  0  0  0  0  0
    7.7881   12.4745   25.2287 C   0  0  0  0  0  0  0  0  0  0  0  0
    8.8507   13.0278   24.4412 C   0  0  0  0  0  0  0  0  0  0  0  0
    9.1910   14.4825   24.4752 C   0  0  0  0  0  0  0  0  0  0  0  0
    8.3558   15.3497   24.2770 O   0  0  0  0  0  0  0  0  0  0  0  0
   10.4949   14.7275   24.7939 N   0  0  0  0  0  0  0  0  0  0  0  0
   10.9316   15.9294   25.4810 C   0  0  0  0  0  0  0  0  0  0  0  0
   11.3385   15.6280   26.9112 C   0  0  0  0  0  0  0  0  0  0  0  0
   10.3364   15.5962   27.8836 C   0  0  0  0  0  0  0  0  0  0  0  0
   10.6051   15.1963   29.1884 C   0  0  0  0  0  0  0  0  0  0  0  0
   11.8966   14.8123   29.5328 C   0  0  0  0  0  0  0  0  0  0  0  0
   12.9058   14.8727   28.5802 C   0  0  0  0  0  0  0  0  0  0  0  0
   12.6549   15.3067   27.2818 C   0  0  0  0  0  0  0  0  0  0  0  0
   13.8505   15.4384   26.3604 C   0  0  0  0  0  0  0  0  0  0  0  0
   14.2442   14.1747   25.7563 N   0  0  0  0  0  0  0  0  0  0  0  0
   15.2787   13.3538   26.0102 C   0  0  0  0  0  0  0  0  0  0  0  0
   15.1741   12.2442   25.3037 N   0  0  0  0  0  0  0  0  0  0  0  0
   14.0161   12.4433   24.6196 C   0  0  0  0  0  0  0  0  0  0  0  0
   13.4064   13.5906   24.8724 N   0  0  0  0  0  0  0  0  0  0  0  0
    9.5955   12.2123   23.6179 C   0  0  0  0  0  0  0  0  0  0  0  0
    9.3365   10.8240   23.5562 C   0  0  0  0  0  0  0  0  0  0  0  0
   10.1646    9.9461   22.6703 C   0  0  0  0  0  0  0  0  0  0  0  0
   11.3964    9.2312   23.1944 C   0  0  0  0  0  0  0  0  0  0  0  0
   10.1198    8.4937   22.9856 C   0  0  0  0  0  0  0  0  0  0  0  0
    8.3764   10.2803   24.2624 N   0  0  0  0  0  0  0  0  0  0  0  0
    7.5990   11.0673   25.0566 C   0  0  0  0  0  0  0  0  0  0  0  0
    6.5665   10.3991   25.7524 C   0  0  0  0  0  0  0  0  0  0  0  0
  1  2  1  0
  2  3  2  0
  3  4  1  0
  4  5  1  0
  4  6  2  0
  6  7  1  0
  7  8  1  0
  8  9  2  0
  8 10  1  0
 10 11  1  0
 11 12  1  0
 12 13  2  0
 13 14  1  0
 14 15  2  0
 15 16  1  0
 16 17  2  0
 17 18  1  0
 18 19  1  0
 19 20  1  0
 20 21  2  0
 21 22  1  0
 22 23  2  0
  7 24  2  0
 24 25  1  0
 25 26  1  0
 26 27  1  0
 27 28  1  0
 25 29  2  0
 29 30  1  0
 30 31  2  0
 31  2  1  0
 30  6  1  0
 17 12  1  0
 23 19  1  0
 28 26  1  0
M  END
>  <cnnaffinity>  (29) 
-6.32863

>  <cnnaffinityIC50>  (29) 
469.2129609338617 nanomolar

>  <smiles>  (29) 
CC1=CC(C)=C2C(C(=O)NCC3=CC=CC=C3CN3C=NC=N3)=CC(C3CC3)=NC2=C1 Z1355126917

>  <ref_pdb>  (29) 
Ax0310a

>  <ref_mols>  (29) 
Ax0739a

>  <rationale>  (29) 
Enamine real space elaborations around a merge of x1097 and x0739.

>  <original SMILES>  (29) 
CC1=CC(C)=C2C(C(=O)NCC3=CC=CC=C3CN3C=NC=N3)=CC(C3CC3)=NC2=C1

$$$$
Z1354893693
     RDKit          3D

 28 32  0  0  0  0  0  0  0  0999 V2000
    4.8054   11.0145   27.9292 C   0  0  0  0  0  0  0  0  0  0  0  0
    5.9793   11.4446   27.0875 C   0  0  0  0  0  0  0  0  0  0  0  0
    6.2872   12.8151   26.9455 C   0  0  0  0  0  0  0  0  0  0  0  0
    7.3558   13.2827   26.2123 C   0  0  0  0  0  0  0  0  0  0  0  0
    7.4925   14.7827   26.0883 C   0  0  0  0  0  0  0  0  0  0  0  0
    8.2189   12.3219   25.5860 C   0  0  0  0  0  0  0  0  0  0  0  0
    9.3994   12.6112   24.8201 C   0  0  0  0  0  0  0  0  0  0  0  0
   10.1610   13.9138   24.7876 C   0  0  0  0  0  0  0  0  0  0  0  0
   10.4964   14.5697   25.7532 O   0  0  0  0  0  0  0  0  0  0  0  0
   10.5415   14.3062   23.4952 N   0  0  0  0  0  0  0  0  0  0  0  0
   11.9263   14.7531   23.3825 C   0  0  0  0  0  0  0  0  0  0  0  0
   12.2832   15.4651   22.0973 C   0  0  0  0  0  0  0  0  0  0  0  0
   13.4260   15.7872   21.8421 O   0  0  0  0  0  0  0  0  0  0  0  0
   11.2473   15.7294   21.2416 N   0  0  0  0  0  0  0  0  0  0  0  0
    9.9127   15.3584   21.4256 C   0  0  0  0  0  0  0  0  0  0  0  0
    8.9072   15.8126   20.5838 C   0  0  0  0  0  0  0  0  0  0  0  0
    7.6293   15.5201   20.7640 N   0  0  0  0  0  0  0  0  0  0  0  0
    7.3021   14.7059   21.7628 C   0  0  0  0  0  0  0  0  0  0  0  0
    8.2225   14.1977   22.6541 C   0  0  0  0  0  0  0  0  0  0  0  0
    9.5617   14.5763   22.5262 C   0  0  0  0  0  0  0  0  0  0  0  0
    9.9295   11.6173   24.0436 C   0  0  0  0  0  0  0  0  0  0  0  0
    9.4744   10.2863   24.1459 C   0  0  0  0  0  0  0  0  0  0  0  0
   10.1083    9.2546   23.2606 C   0  0  0  0  0  0  0  0  0  0  0  0
    9.2451    8.6852   22.1779 C   0  0  0  0  0  0  0  0  0  0  0  0
   10.2948    9.6937   21.8358 C   0  0  0  0  0  0  0  0  0  0  0  0
    8.4887    9.9523   24.9390 N   0  0  0  0  0  0  0  0  0  0  0  0
    7.8563   10.9397   25.6408 C   0  0  0  0  0  0  0  0  0  0  0  0
    6.7534   10.5370   26.4258 C   0  0  0  0  0  0  0  0  0  0  0  0
  1  2  1  0
  2  3  2  0
  3  4  1  0
  4  5  1  0
  4  6  2  0
  6  7  1  0
  7  8  1  0
  8  9  2  0
  8 10  1  0
 10 11  1  0
 11 12  1  0
 12 13  2  0
 12 14  1  0
 14 15  1  0
 15 16  2  0
 16 17  1  0
 17 18  2  0
 18 19  1  0
 19 20  2  0
  7 21  2  0
 21 22  1  0
 22 23  1  0
 23 24  1  0
 24 25  1  0
 22 26  2  0
 26 27  1  0
 27 28  2  0
 28  2  1  0
 27  6  1  0
 20 10  1  0
 25 23  1  0
 20 15  1  0
M  END
>  <cnnaffinity>  (30) 
-6.32604

>  <cnnaffinityIC50>  (30) 
472.0195646529226 nanomolar

>  <smiles>  (30) 
CC1=CC(C)=C2C(C(=O)N3CC(=O)NC4=CN=CC=C43)=CC(C3CC3)=NC2=C1 Z1354893693

>  <ref_pdb>  (30) 
Ax0310a

>  <ref_mols>  (30) 
Ax0739a

>  <rationale>  (30) 
Enamine real space elaborations around a merge of x1097 and x0739.

>  <original SMILES>  (30) 
CC1=CC(C)=C2C(C(=O)N3CC(=O)NC4=CN=CC=C43)=CC(C3CC3)=NC2=C1

$$$$
Z1355104027
     RDKit          3D

 28 32  0  0  0  0  0  0  0  0999 V2000
    4.6904   10.9187   27.9271 C   0  0  0  0  0  0  0  0  0  0  0  0
    5.8394   11.4014   27.0722 C   0  0  0  0  0  0  0  0  0  0  0  0
    6.1307   12.7839   26.9829 C   0  0  0  0  0  0  0  0  0  0  0  0
    7.1845   13.2942   26.2538 C   0  0  0  0  0  0  0  0  0  0  0  0
    7.3217   14.7933   26.1751 C   0  0  0  0  0  0  0  0  0  0  0  0
    8.0691   12.3781   25.5942 C   0  0  0  0  0  0  0  0  0  0  0  0
    9.2499   12.7209   24.8494 C   0  0  0  0  0  0  0  0  0  0  0  0
    9.9823   14.0497   24.8429 C   0  0  0  0  0  0  0  0  0  0  0  0
   10.3126   14.6678   25.8360 O   0  0  0  0  0  0  0  0  0  0  0  0
   10.3695   14.4909   23.5745 N   0  0  0  0  0  0  0  0  0  0  0  0
   11.7797   14.8859   23.4288 C   0  0  0  0  0  0  0  0  0  0  0  0
   11.9991   15.5908   22.1006 C   0  0  0  0  0  0  0  0  0  0  0  0
   11.4273   14.7884   21.0273 N   0  0  0  0  0  0  0  0  0  0  0  0
   11.9104   14.9707   19.6709 C   0  0  0  0  0  0  0  0  0  0  0  0
   10.0900   14.5074   21.1639 C   0  0  0  0  0  0  0  0  0  0  0  0
    9.3699   14.3502   20.0583 N   0  0  0  0  0  0  0  0  0  0  0  0
    8.0709   14.1216   20.1885 C   0  0  0  0  0  0  0  0  0  0  0  0
    7.4164   14.0035   21.4009 C   0  0  0  0  0  0  0  0  0  0  0  0
    8.1591   14.1462   22.5587 C   0  0  0  0  0  0  0  0  0  0  0  0
    9.5290   14.3746   22.4598 C   0  0  0  0  0  0  0  0  0  0  0  0
    9.8220   11.7496   24.0725 C   0  0  0  0  0  0  0  0  0  0  0  0
    9.3736   10.4130   24.1117 C   0  0  0  0  0  0  0  0  0  0  0  0
   10.0956    9.4253   23.2481 C   0  0  0  0  0  0  0  0  0  0  0  0
    9.2969    8.7117   22.2012 C   0  0  0  0  0  0  0  0  0  0  0  0
   10.2254    9.8155   21.8046 C   0  0  0  0  0  0  0  0  0  0  0  0
    8.3555   10.0404   24.8452 N   0  0  0  0  0  0  0  0  0  0  0  0
    7.7082   10.9928   25.5808 C   0  0  0  0  0  0  0  0  0  0  0  0
    6.6112   10.5370   26.3477 C   0  0  0  0  0  0  0  0  0  0  0  0
  1  2  1  0
  2  3  2  0
  3  4  1  0
  4  5  1  0
  4  6  2  0
  6  7  1  0
  7  8  1  0
  8  9  2  0
  8 10  1  0
 10 11  1  0
 11 12  1  0
 12 13  1  0
 13 14  1  0
 13 15  1  0
 15 16  2  0
 16 17  1  0
 17 18  2  0
 18 19  1  0
 19 20  2  0
  7 21  2  0
 21 22  1  0
 22 23  1  0
 23 24  1  0
 24 25  1  0
 22 26  2  0
 26 27  1  0
 27 28  2  0
 28  2  1  0
 27  6  1  0
 20 10  1  0
 25 23  1  0
 20 15  1  0
M  END
>  <cnnaffinity>  (31) 
-6.29903

>  <cnnaffinityIC50>  (31) 
502.3078901241292 nanomolar

>  <smiles>  (31) 
CC1=CC(C)=C2C(C(=O)N3CCN(C)C4=NC=CC=C43)=CC(C3CC3)=NC2=C1 Z1355104027

>  <ref_pdb>  (31) 
Ax0310a

>  <ref_mols>  (31) 
Ax0739a

>  <rationale>  (31) 
Enamine real space elaborations around a merge of x1097 and x0739.

>  <original SMILES>  (31) 
CC1=CC(C)=C2C(C(=O)N3CCN(C)C4=NC=CC=C43)=CC(C3CC3)=NC2=C1

$$$$
Z4270762792
     RDKit          3D

 26 30  0  0  0  0  0  0  0  0999 V2000
    4.8215   10.9604   27.8389 C   0  0  0  0  0  0  0  0  0  0  0  0
    5.9926   11.4521   27.0252 C   0  0  0  0  0  0  0  0  0  0  0  0
    6.2676   12.8325   26.9044 C   0  0  0  0  0  0  0  0  0  0  0  0
    7.3081   13.3331   26.1504 C   0  0  0  0  0  0  0  0  0  0  0  0
    7.4232   14.8338   26.0422 C   0  0  0  0  0  0  0  0  0  0  0  0
    8.1831   12.4105   25.4868 C   0  0  0  0  0  0  0  0  0  0  0  0
    9.3139   12.7523   24.6733 C   0  0  0  0  0  0  0  0  0  0  0  0
    9.9377   14.1292   24.5576 C   0  0  0  0  0  0  0  0  0  0  0  0
   10.3349   14.7562   25.5202 O   0  0  0  0  0  0  0  0  0  0  0  0
   10.1540   14.6090   23.2715 N   0  0  0  0  0  0  0  0  0  0  0  0
   11.3517   15.3787   22.9415 C   0  0  0  0  0  0  0  0  0  0  0  0
   11.8058   15.0429   21.5175 C   0  0  0  0  0  0  0  0  0  0  0  0
   10.7168   15.4529   20.5248 C   0  0  0  0  0  0  0  0  0  0  0  0
    9.4437   14.7933   20.9245 C   0  0  0  0  0  0  0  0  0  0  0  0
    8.4101   14.4381   20.2110 N   0  0  0  0  0  0  0  0  0  0  0  0
    7.4563   13.9453   21.0721 N   0  0  0  0  0  0  0  0  0  0  0  0
    7.9497   14.0109   22.2752 C   0  0  0  0  0  0  0  0  0  0  0  0
    9.2126   14.5189   22.2453 N   0  0  0  0  0  0  0  0  0  0  0  0
    9.9205   11.7606   23.9483 C   0  0  0  0  0  0  0  0  0  0  0  0
    9.5171   10.4090   24.0733 C   0  0  0  0  0  0  0  0  0  0  0  0
   10.2024    9.3730   23.2317 C   0  0  0  0  0  0  0  0  0  0  0  0
   10.3666    9.7357   21.7852 C   0  0  0  0  0  0  0  0  0  0  0  0
    9.3617    8.6998   22.1862 C   0  0  0  0  0  0  0  0  0  0  0  0
    8.5427   10.0440   24.8673 N   0  0  0  0  0  0  0  0  0  0  0  0
    7.8792   11.0124   25.5650 C   0  0  0  0  0  0  0  0  0  0  0  0
    6.7994   10.5727   26.3616 C   0  0  0  0  0  0  0  0  0  0  0  0
  1  2  1  0
  2  3  2  0
  3  4  1  0
  4  5  1  0
  4  6  2  0
  6  7  1  0
  7  8  1  0
  8  9  2  0
  8 10  1  0
 10 11  1  0
 11 12  1  0
 12 13  1  0
 13 14  1  0
 14 15  2  0
 15 16  1  0
 16 17  2  0
 17 18  1  0
  7 19  2  0
 19 20  1  0
 20 21  1  0
 21 22  1  0
 22 23  1  0
 20 24  2  0
 24 25  1  0
 25 26  2  0
 26  2  1  0
 25  6  1  0
 18 10  1  0
 23 21  1  0
 18 14  1  0
M  END
>  <cnnaffinity>  (32) 
-6.23543

>  <cnnaffinityIC50>  (32) 
581.527155858236 nanomolar

>  <smiles>  (32) 
CC1=CC(C)=C2C(C(=O)N3CCCC4=NN=CN43)=CC(C3CC3)=NC2=C1 Z4270762792

>  <ref_pdb>  (32) 
Ax0310a

>  <ref_mols>  (32) 
Ax0739a

>  <rationale>  (32) 
Enamine real space elaborations around a merge of x1097 and x0739.

>  <original SMILES>  (32) 
CC1=CC(C)=C2C(C(=O)N3CCCC4=NN=CN43)=CC(C3CC3)=NC2=C1

$$$$
PV-004592631936
     RDKit          3D

 28 31  0  0  0  0  0  0  0  0999 V2000
    4.6976   10.9032   27.9257 C   0  0  0  0  0  0  0  0  0  0  0  0
    5.8047   11.3721   27.0126 C   0  0  0  0  0  0  0  0  0  0  0  0
    6.1134   12.7492   26.9355 C   0  0  0  0  0  0  0  0  0  0  0  0
    7.1219   13.2481   26.1454 C   0  0  0  0  0  0  0  0  0  0  0  0
    7.3366   14.7397   26.1733 C   0  0  0  0  0  0  0  0  0  0  0  0
    7.9006   12.3283   25.3681 C   0  0  0  0  0  0  0  0  0  0  0  0
    9.0002   12.6735   24.5321 C   0  0  0  0  0  0  0  0  0  0  0  0
    9.5076   14.0684   24.3242 C   0  0  0  0  0  0  0  0  0  0  0  0
    9.0010   14.8613   23.5507 O   0  0  0  0  0  0  0  0  0  0  0  0
   10.6142   14.3031   25.0750 N   0  0  0  0  0  0  0  0  0  0  0  0
   11.2508   15.5987   25.2458 C   0  0  0  0  0  0  0  0  0  0  0  0
   12.1793   15.4359   26.4066 C   0  0  0  0  0  0  0  0  0  0  0  0
   13.5362   15.2827   26.4884 C   0  0  0  0  0  0  0  0  0  0  0  0
   13.7615   14.9952   27.7987 N   0  0  0  0  0  0  0  0  0  0  0  0
   15.0406   14.8056   28.4740 C   0  0  0  0  0  0  0  0  0  0  0  0
   15.3698   13.3803   28.9532 C   0  0  0  0  0  0  0  0  0  0  0  0
   14.4820   12.9339   30.1136 C   0  0  0  0  0  0  0  0  0  0  0  0
   16.8306   13.3662   29.4065 C   0  0  0  0  0  0  0  0  0  0  0  0
   12.6126   14.9847   28.4768 N   0  0  0  0  0  0  0  0  0  0  0  0
   11.6470   15.2156   27.6387 N   0  0  0  0  0  0  0  0  0  0  0  0
    9.6840   11.6808   23.8879 C   0  0  0  0  0  0  0  0  0  0  0  0
    9.3026   10.3259   24.0174 C   0  0  0  0  0  0  0  0  0  0  0  0
   10.0713    9.3146   23.2157 C   0  0  0  0  0  0  0  0  0  0  0  0
   10.2531    9.6638   21.7600 C   0  0  0  0  0  0  0  0  0  0  0  0
    9.3187    8.5672   22.1627 C   0  0  0  0  0  0  0  0  0  0  0  0
    8.2876    9.9609   24.7601 N   0  0  0  0  0  0  0  0  0  0  0  0
    7.6031   10.9288   25.4431 C   0  0  0  0  0  0  0  0  0  0  0  0
    6.5367   10.4946   26.2644 C   0  0  0  0  0  0  0  0  0  0  0  0
  1  2  1  0
  2  3  2  0
  3  4  1  0
  4  5  1  0
  4  6  2  0
  6  7  1  0
  7  8  1  0
  8  9  2  0
  8 10  1  0
 10 11  1  0
 11 12  1  0
 12 13  2  0
 13 14  1  0
 14 15  1  0
 15 16  1  0
 16 17  1  0
 16 18  1  0
 14 19  1  0
 19 20  2  0
  7 21  2  0
 21 22  1  0
 22 23  1  0
 23 24  1  0
 24 25  1  0
 22 26  2  0
 26 27  1  0
 27 28  2  0
 28  2  1  0
 27  6  1  0
 20 12  1  0
 25 23  1  0
M  END
>  <cnnaffinity>  (33) 
-6.22714

>  <cnnaffinityIC50>  (33) 
592.7342188423507 nanomolar

>  <smiles>  (33) 
CC1=CC(C)=C2C(C(=O)NCC3=CN(CC(C)C)N=N3)=CC(C3CC3)=NC2=C1 PV-004592631936

>  <ref_pdb>  (33) 
Ax0310a

>  <ref_mols>  (33) 
Ax0739a

>  <rationale>  (33) 
Enamine real space elaborations around a merge of x1097 and x0739.

>  <original SMILES>  (33) 
CC1=CC(C)=C2C(C(=O)NCC3=CN(CC(C)C)N=N3)=CC(C3CC3)=NC2=C1

$$$$
Z1500141987
     RDKit          3D

 32 36  0  0  0  0  0  0  0  0999 V2000
    4.7104   10.8583   27.9129 C   0  0  0  0  0  0  0  0  0  0  0  0
    5.8043   11.3494   27.0017 C   0  0  0  0  0  0  0  0  0  0  0  0
    6.1055   12.7264   26.9376 C   0  0  0  0  0  0  0  0  0  0  0  0
    7.1207   13.2363   26.1634 C   0  0  0  0  0  0  0  0  0  0  0  0
    7.2931   14.7349   26.1999 C   0  0  0  0  0  0  0  0  0  0  0  0
    7.9229   12.3169   25.4053 C   0  0  0  0  0  0  0  0  0  0  0  0
    9.0583   12.6551   24.6133 C   0  0  0  0  0  0  0  0  0  0  0  0
    9.5851   14.0462   24.4829 C   0  0  0  0  0  0  0  0  0  0  0  0
    8.9987   14.9161   23.8664 O   0  0  0  0  0  0  0  0  0  0  0  0
   10.7649   14.2337   25.1294 N   0  0  0  0  0  0  0  0  0  0  0  0
   11.2871   15.5465   25.4634 C   0  0  0  0  0  0  0  0  0  0  0  0
   12.1199   15.3957   26.6891 C   0  0  0  0  0  0  0  0  0  0  0  0
   13.3444   14.9427   26.6657 N   0  0  0  0  0  0  0  0  0  0  0  0
   13.7887   14.8818   27.9657 N   0  0  0  0  0  0  0  0  0  0  0  0
   12.8102   15.2949   28.7279 C   0  0  0  0  0  0  0  0  0  0  0  0
   12.8168   15.5346   30.1984 C   0  0  0  0  0  0  0  0  0  0  0  0
   11.4094   15.3973   30.7710 C   0  0  0  0  0  0  0  0  0  0  0  0
   10.4391   16.2700   29.9695 C   0  0  2  0  0  0  0  0  0  0  0  0
    9.0494   16.2357   30.5769 C   0  0  0  0  0  0  0  0  0  0  0  0
    8.1722   17.0013   29.8968 F   0  0  0  0  0  0  0  0  0  0  0  0
    8.5424   14.9789   30.5872 F   0  0  0  0  0  0  0  0  0  0  0  0
    9.0453   16.6650   31.8543 F   0  0  0  0  0  0  0  0  0  0  0  0
   10.3734   15.8232   28.5040 C   0  0  0  0  0  0  0  0  0  0  0  0
   11.7113   15.6089   27.9759 N   0  0  0  0  0  0  0  0  0  0  0  0
    9.7226   11.6793   23.9234 C   0  0  0  0  0  0  0  0  0  0  0  0
    9.3192   10.3276   24.0113 C   0  0  0  0  0  0  0  0  0  0  0  0
   10.0878    9.3181   23.2033 C   0  0  0  0  0  0  0  0  0  0  0  0
    9.3177    8.5994   22.1416 C   0  0  0  0  0  0  0  0  0  0  0  0
   10.2866    9.6750   21.7523 C   0  0  0  0  0  0  0  0  0  0  0  0
    8.2940    9.9609   24.7419 N   0  0  0  0  0  0  0  0  0  0  0  0
    7.6102   10.9196   25.4415 C   0  0  0  0  0  0  0  0  0  0  0  0
    6.5307   10.4804   26.2391 C   0  0  0  0  0  0  0  0  0  0  0  0
  1  2  1  0
  2  3  2  0
  3  4  1  0
  4  5  1  0
  4  6  2  0
  6  7  1  0
  7  8  1  0
  8  9  2  0
  8 10  1  0
 10 11  1  0
 11 12  1  0
 12 13  2  0
 13 14  1  0
 14 15  2  0
 15 16  1  0
 16 17  1  0
 17 18  1  0
 18 19  1  1
 19 20  1  0
 19 21  1  0
 19 22  1  0
 18 23  1  0
 23 24  1  0
  7 25  2  0
 25 26  1  0
 26 27  1  0
 27 28  1  0
 28 29  1  0
 26 30  2  0
 30 31  1  0
 31 32  2  0
 32  2  1  0
 31  6  1  0
 24 12  1  0
 29 27  1  0
 24 15  1  0
M  END
>  <cnnaffinity>  (34) 
-6.22584

>  <cnnaffinityIC50>  (34) 
594.5111442741949 nanomolar

>  <smiles>  (34) 
CC1=CC(C)=C2C(C(=O)NCC3=NN=C4CCC(C(F)(F)F)CN43)=CC(C3CC3)=NC2=C1 Z1500141987

>  <ref_pdb>  (34) 
Ax0310a

>  <ref_mols>  (34) 
Ax0739a

>  <rationale>  (34) 
Enamine real space elaborations around a merge of x1097 and x0739.

>  <original SMILES>  (34) 
CC1=CC(C)=C2C(C(=O)NCC3=NN=C4CCC(C(F)(F)F)CN43)=CC(C3CC3)=NC2=C1

$$$$
Z1355374184
     RDKit          3D

 29 32  0  0  0  0  0  0  0  0999 V2000
    4.7067   10.9430   27.9077 C   0  0  0  0  0  0  0  0  0  0  0  0
    5.8393   11.3952   27.0143 C   0  0  0  0  0  0  0  0  0  0  0  0
    6.1606   12.7700   26.9266 C   0  0  0  0  0  0  0  0  0  0  0  0
    7.1767   13.2632   26.1429 C   0  0  0  0  0  0  0  0  0  0  0  0
    7.4091   14.7533   26.1699 C   0  0  0  0  0  0  0  0  0  0  0  0
    7.9663   12.3377   25.3896 C   0  0  0  0  0  0  0  0  0  0  0  0
    9.0919   12.6742   24.5863 C   0  0  0  0  0  0  0  0  0  0  0  0
    9.6502   14.0447   24.4367 C   0  0  0  0  0  0  0  0  0  0  0  0
    9.3443   14.8317   23.5811 O   0  0  0  0  0  0  0  0  0  0  0  0
   10.5893   14.2358   25.3696 O   0  0  0  0  0  0  0  0  0  0  0  0
   11.2135   15.5167   25.5051 C   0  0  0  0  0  0  0  0  0  0  0  0
   11.9300   15.4276   26.8148 C   0  0  0  0  0  0  0  0  0  0  0  0
   13.1591   15.0863   27.0314 N   0  0  0  0  0  0  0  0  0  0  0  0
   13.2200   15.0719   28.4099 C   0  0  0  0  0  0  0  0  0  0  0  0
   14.4866   14.7844   29.1639 C   0  0  0  0  0  0  0  0  0  0  0  0
   14.6199   13.4272   29.8394 C   0  0  0  0  0  0  0  0  0  0  0  0
   13.6201   13.1737   30.6915 F   0  0  0  0  0  0  0  0  0  0  0  0
   14.6705   12.4205   28.9550 F   0  0  0  0  0  0  0  0  0  0  0  0
   15.7679   13.4017   30.5406 F   0  0  0  0  0  0  0  0  0  0  0  0
   12.0988   15.3908   28.9911 N   0  0  0  0  0  0  0  0  0  0  0  0
   11.2288   15.6159   27.9343 O   0  0  0  0  0  0  0  0  0  0  0  0
    9.7516   11.6881   23.9124 C   0  0  0  0  0  0  0  0  0  0  0  0
    9.3251   10.3436   24.0093 C   0  0  0  0  0  0  0  0  0  0  0  0
   10.0868    9.3342   23.2064 C   0  0  0  0  0  0  0  0  0  0  0  0
    9.3267    8.5770   22.1676 C   0  0  0  0  0  0  0  0  0  0  0  0
   10.2433    9.6824   21.7476 C   0  0  0  0  0  0  0  0  0  0  0  0
    8.2997    9.9820   24.7398 N   0  0  0  0  0  0  0  0  0  0  0  0
    7.6392   10.9461   25.4480 C   0  0  0  0  0  0  0  0  0  0  0  0
    6.5772   10.5112   26.2759 C   0  0  0  0  0  0  0  0  0  0  0  0
  1  2  1  0
  2  3  2  0
  3  4  1  0
  4  5  1  0
  4  6  2  0
  6  7  1  0
  7  8  1  0
  8  9  2  0
  8 10  1  0
 10 11  1  0
 11 12  1  0
 12 13  2  0
 13 14  1  0
 14 15  1  0
 15 16  1  0
 16 17  1  0
 16 18  1  0
 16 19  1  0
 14 20  2  0
 20 21  1  0
  7 22  2  0
 22 23  1  0
 23 24  1  0
 24 25  1  0
 25 26  1  0
 23 27  2  0
 27 28  1  0
 28 29  2  0
 29  2  1  0
 28  6  1  0
 21 12  1  0
 26 24  1  0
M  END
>  <cnnaffinity>  (35) 
-6.22434

>  <cnnaffinityIC50>  (35) 
596.5680631500929 nanomolar

>  <smiles>  (35) 
CC1=CC(C)=C2C(C(=O)OCC3=NC(CC(F)(F)F)=NO3)=CC(C3CC3)=NC2=C1 Z1355374184

>  <ref_pdb>  (35) 
Ax0310a

>  <ref_mols>  (35) 
Ax0739a

>  <rationale>  (35) 
Enamine real space elaborations around a merge of x1097 and x0739.

>  <original SMILES>  (35) 
CC1=CC(C)=C2C(C(=O)OCC3=NC(CC(F)(F)F)=NO3)=CC(C3CC3)=NC2=C1

$$$$
Z1355138775
     RDKit          3D

 31 35  0  0  0  0  0  0  0  0999 V2000
    4.9327   10.6975   27.7752 C   0  0  0  0  0  0  0  0  0  0  0  0
    5.9908   11.2611   26.8588 C   0  0  0  0  0  0  0  0  0  0  0  0
    6.2814   12.6449   26.8752 C   0  0  0  0  0  0  0  0  0  0  0  0
    7.2538   13.2170   26.0891 C   0  0  0  0  0  0  0  0  0  0  0  0
    7.4124   14.7166   26.1697 C   0  0  0  0  0  0  0  0  0  0  0  0
    8.0352   12.3560   25.2475 C   0  0  0  0  0  0  0  0  0  0  0  0
    9.1358   12.7597   24.4469 C   0  0  0  0  0  0  0  0  0  0  0  0
    9.7091   14.1239   24.4527 C   0  0  0  0  0  0  0  0  0  0  0  0
    9.2372   14.9586   23.7083 O   0  0  0  0  0  0  0  0  0  0  0  0
   10.7478   14.2860   25.3156 N   0  0  0  0  0  0  0  0  0  0  0  0
   11.3463   15.5497   25.7004 C   0  0  0  0  0  0  0  0  0  0  0  0
   11.9710   15.4309   27.0742 C   0  0  0  0  0  0  0  0  0  0  0  0
   11.3034   15.7694   28.2520 C   0  0  0  0  0  0  0  0  0  0  0  0
   11.9511   15.6899   29.4766 C   0  0  0  0  0  0  0  0  0  0  0  0
   13.2792   15.2455   29.4929 C   0  0  0  0  0  0  0  0  0  0  0  0
   14.0974   15.2804   30.6501 N   0  0  0  0  0  0  0  0  0  0  0  0
   15.4738   15.4921   30.6022 C   0  0  0  0  0  0  0  0  0  0  0  0
   15.8732   15.6626   31.8886 C   0  0  0  0  0  0  0  0  0  0  0  0
   14.8033   15.5326   32.7485 N   0  0  0  0  0  0  0  0  0  0  0  0
   13.7599   15.3131   31.9960 C   0  0  0  0  0  0  0  0  0  0  0  0
   12.3942   15.0997   32.5600 C   0  0  0  0  0  0  0  0  0  0  0  0
   13.9023   14.8203   28.3924 N   0  0  0  0  0  0  0  0  0  0  0  0
   13.2678   14.9449   27.2284 C   0  0  0  0  0  0  0  0  0  0  0  0
    9.6849   11.8950   23.5483 C   0  0  0  0  0  0  0  0  0  0  0  0
    9.3018   10.5440   23.5594 C   0  0  0  0  0  0  0  0  0  0  0  0
   10.1034    9.6612   22.6699 C   0  0  0  0  0  0  0  0  0  0  0  0
   11.4701    9.2334   23.1767 C   0  0  0  0  0  0  0  0  0  0  0  0
   10.3428    8.2783   23.1318 C   0  0  0  0  0  0  0  0  0  0  0  0
    8.3748   10.0833   24.3652 N   0  0  0  0  0  0  0  0  0  0  0  0
    7.7140   10.9674   25.1731 C   0  0  0  0  0  0  0  0  0  0  0  0
    6.6815   10.4602   25.9937 C   0  0  0  0  0  0  0  0  0  0  0  0
  1  2  1  0
  2  3  2  0
  3  4  1  0
  4  5  1  0
  4  6  2  0
  6  7  1  0
  7  8  1  0
  8  9  2  0
  8 10  1  0
 10 11  1  0
 11 12  1  0
 12 13  2  0
 13 14  1  0
 14 15  2  0
 15 16  1  0
 16 17  1  0
 17 18  2  0
 18 19  1  0
 19 20  2  0
 20 21  1  0
 15 22  1  0
 22 23  2  0
  7 24  2  0
 24 25  1  0
 25 26  1  0
 26 27  1  0
 27 28  1  0
 25 29  2  0
 29 30  1  0
 30 31  2  0
 31  2  1  0
 30  6  1  0
 23 12  1  0
 28 26  1  0
 20 16  1  0
M  END
>  <cnnaffinity>  (36) 
-6.2221

>  <cnnaffinityIC50>  (36) 
599.652985155335 nanomolar

>  <smiles>  (36) 
CC1=CC(C)=C2C(C(=O)NCC3=CC=C(N4C=CN=C4C)N=C3)=CC(C3CC3)=NC2=C1 Z1355138775

>  <ref_pdb>  (36) 
Ax0310a

>  <ref_mols>  (36) 
Ax0739a

>  <rationale>  (36) 
Enamine real space elaborations around a merge of x1097 and x0739.

>  <original SMILES>  (36) 
CC1=CC(C)=C2C(C(=O)NCC3=CC=C(N4C=CN=C4C)N=C3)=CC(C3CC3)=NC2=C1

$$$$
Z2874108565
     RDKit          3D

 27 30  0  0  0  0  0  0  0  0999 V2000
    4.8415   10.7451   27.5885 C   0  0  0  0  0  0  0  0  0  0  0  0
    5.9682   11.1398   26.6696 C   0  0  0  0  0  0  0  0  0  0  0  0
    6.5047   12.4467   26.7591 C   0  0  0  0  0  0  0  0  0  0  0  0
    7.5284   12.8856   25.9609 C   0  0  0  0  0  0  0  0  0  0  0  0
    8.0040   14.3118   26.1099 C   0  0  0  0  0  0  0  0  0  0  0  0
    8.0811   11.9568   25.0299 C   0  0  0  0  0  0  0  0  0  0  0  0
    9.0649   12.2749   24.0737 C   0  0  0  0  0  0  0  0  0  0  0  0
   10.0980   13.3104   24.2007 C   0  0  0  0  0  0  0  0  0  0  0  0
   10.9791   13.3200   25.0316 O   0  0  0  0  0  0  0  0  0  0  0  0
    9.9784   14.2197   23.1877 N   0  0  0  0  0  0  0  0  0  0  0  0
   10.9326   15.1707   22.8944 C   0  0  0  0  0  0  0  0  0  0  0  0
   11.2203   15.6763   21.6333 C   0  0  0  0  0  0  0  0  0  0  0  0
   10.8307   15.1152   20.3841 C   0  0  0  0  0  0  0  0  0  0  0  0
   10.5087   14.6287   19.3827 N   0  0  0  0  0  0  0  0  0  0  0  0
   11.9839   16.8266   21.9147 C   0  0  0  0  0  0  0  0  0  0  0  0
   12.4779   17.9168   21.0591 C   0  0  0  0  0  0  0  0  0  0  0  0
   12.1824   16.9635   23.2012 N   0  0  0  0  0  0  0  0  0  0  0  0
   11.5701   15.9252   23.8055 N   0  0  0  0  0  0  0  0  0  0  0  0
   11.6781   15.8620   25.2574 C   0  0  0  0  0  0  0  0  0  0  0  0
    9.2544   11.4496   23.0036 C   0  0  0  0  0  0  0  0  0  0  0  0
    8.9461   10.0910   23.1606 C   0  0  0  0  0  0  0  0  0  0  0  0
    9.7455    9.1648   22.2961 C   0  0  0  0  0  0  0  0  0  0  0  0
   10.5684    8.1893   23.0578 C   0  0  0  0  0  0  0  0  0  0  0  0
   11.2301    9.3781   22.4662 C   0  0  0  0  0  0  0  0  0  0  0  0
    8.1718    9.6748   24.1396 N   0  0  0  0  0  0  0  0  0  0  0  0
    7.5923   10.6193   24.9492 C   0  0  0  0  0  0  0  0  0  0  0  0
    6.5002   10.2575   25.7692 C   0  0  0  0  0  0  0  0  0  0  0  0
  1  2  1  0
  2  3  2  0
  3  4  1  0
  4  5  1  0
  4  6  2  0
  6  7  1  0
  7  8  1  0
  8  9  2  0
  8 10  1  0
 10 11  1  0
 11 12  2  0
 12 13  1  0
 13 14  3  0
 12 15  1  0
 15 16  1  0
 15 17  2  0
 17 18  1  0
 18 19  1  0
  7 20  2  0
 20 21  1  0
 21 22  1  0
 22 23  1  0
 23 24  1  0
 21 25  2  0
 25 26  1  0
 26 27  2  0
 27  2  1  0
 26  6  1  0
 18 11  1  0
 24 22  1  0
M  END
>  <cnnaffinity>  (37) 
-6.21945

>  <cnnaffinityIC50>  (37) 
603.3231640745115 nanomolar

>  <smiles>  (37) 
CC1=CC(C)=C2C(C(=O)NC3=C(C#N)C(C)=NN3C)=CC(C3CC3)=NC2=C1 Z2874108565

>  <ref_pdb>  (37) 
Ax0310a

>  <ref_mols>  (37) 
Ax0739a

>  <rationale>  (37) 
Enamine real space elaborations around a merge of x1097 and x0739.

>  <original SMILES>  (37) 
CC1=CC(C)=C2C(C(=O)NC3=C(C#N)C(C)=NN3C)=CC(C3CC3)=NC2=C1

$$$$
Z2720830794
     RDKit          3D

 26 28  0  0  0  0  0  0  0  0999 V2000
   11.9590   13.9721   24.2874 C   0  0  0  0  0  0  0  0  0  0  0  0
   11.1714   13.4698   23.0800 C   0  0  2  0  0  0  0  0  0  0  0  0
   10.7603   12.1159   23.2398 O   0  0  0  0  0  0  0  0  0  0  0  0
    9.6740   11.8762   24.0162 C   0  0  0  0  0  0  0  0  0  0  0  0
    9.2780   10.5092   24.1194 C   0  0  0  0  0  0  0  0  0  0  0  0
    8.2664   10.0902   24.8278 N   0  0  0  0  0  0  0  0  0  0  0  0
    7.5487   11.0210   25.5297 C   0  0  0  0  0  0  0  0  0  0  0  0
    6.4556   10.5813   26.3168 C   0  0  0  0  0  0  0  0  0  0  0  0
    5.7310   11.4783   27.0556 C   0  0  0  0  0  0  0  0  0  0  0  0
    6.0533   12.8569   27.0344 C   0  0  0  0  0  0  0  0  0  0  0  0
    7.0961   13.3061   26.2683 C   0  0  0  0  0  0  0  0  0  0  0  0
    7.8623   12.3982   25.4953 C   0  0  0  0  0  0  0  0  0  0  0  0
    8.9495   12.8208   24.6914 C   0  0  0  0  0  0  0  0  0  0  0  0
   12.0986   13.4671   21.8720 C   0  0  0  0  0  0  0  0  0  0  0  0
   13.0585   12.7312   21.8281 O   0  0  0  0  0  0  0  0  0  0  0  0
   11.8347   14.3914   20.8946 N   0  0  0  0  0  0  0  0  0  0  0  0
   11.5888   15.7777   21.2351 C   0  0  0  0  0  0  0  0  0  0  0  0
   10.4969   16.3071   20.3339 C   0  0  0  0  0  0  0  0  0  0  0  0
   10.4805   15.7183   18.9150 C   0  0  0  0  0  0  0  0  0  0  0  0
   10.3045   16.8475   17.9696 N   0  0  0  0  0  0  0  0  0  0  0  0
    8.8246   17.5842   17.8098 S   0  0  0  0  0  6  0  0  0  0  0  0
    7.9841   17.4038   19.2441 N   0  0  0  0  0  0  0  0  0  0  0  0
    8.0761   16.8286   16.8344 O   0  0  0  0  0  0  0  0  0  0  0  0
    9.1015   18.9987   17.6519 O   0  0  0  0  0  0  0  0  0  0  0  0
   11.7492   14.9389   18.4960 C   0  0  0  0  0  0  0  0  0  0  0  0
   12.5382   14.2576   19.6315 C   0  0  0  0  0  0  0  0  0  0  0  0
  2  1  1  1
  2  3  1  0
  3  4  1  0
  4  5  2  0
  5  6  1  0
  6  7  2  0
  7  8  1  0
  8  9  2  0
  9 10  1  0
 10 11  2  0
 11 12  1  0
 12 13  2  0
  2 14  1  0
 14 15  2  0
 14 16  1  0
 16 17  1  0
 17 18  1  0
 18 19  1  0
 19 20  1  0
 20 21  1  0
 21 22  1  0
 21 23  2  0
 21 24  2  0
 19 25  1  0
 25 26  1  0
 13  4  1  0
 26 16  1  0
 12  7  1  0
M  END
>  <cnnaffinity>  (38) 
-6.1348

>  <cnnaffinityIC50>  (38) 
733.1620890272109 nanomolar

>  <smiles>  (38) 
C[C@H](OC1=CN=C2C=CC=CC2=C1)C(=O)N1CCC(NS(N)(=O)=O)CC1 Z2720830794

>  <ref_pdb>  (38) 
Ax0310a

>  <ref_mols>  (38) 
Ax0922a

>  <rationale>  (38) 
Enamine real space elaborations around a merge of x1097 and x0922.

>  <original SMILES>  (38) 
C[C@H](OC1=CN=C2C=CC=CC2=C1)C(=O)N1CCC(NS(N)(=O)=O)CC1

$$$$
Z1962480676
     RDKit          3D

 26 28  0  0  0  0  0  0  0  0999 V2000
   13.1811   12.9632   22.6765 C   0  0  0  0  0  0  0  0  0  0  0  0
   11.8027   12.9207   23.3487 C   0  0  2  0  0  0  0  0  0  0  0  0
   11.2188   11.5961   23.2801 O   0  0  0  0  0  0  0  0  0  0  0  0
   10.0233   11.4255   23.9631 C   0  0  0  0  0  0  0  0  0  0  0  0
    9.4828   10.1321   24.1055 C   0  0  0  0  0  0  0  0  0  0  0  0
    8.3668    9.8569   24.8123 N   0  0  0  0  0  0  0  0  0  0  0  0
    7.7301   10.8776   25.4170 C   0  0  0  0  0  0  0  0  0  0  0  0
    6.6008   10.6039   26.1929 C   0  0  0  0  0  0  0  0  0  0  0  0
    5.9191   11.6273   26.8671 C   0  0  0  0  0  0  0  0  0  0  0  0
    6.3555   12.9495   26.7373 C   0  0  0  0  0  0  0  0  0  0  0  0
    7.4799   13.2466   25.9593 C   0  0  0  0  0  0  0  0  0  0  0  0
    8.1811   12.2138   25.3152 C   0  0  0  0  0  0  0  0  0  0  0  0
    9.3434   12.4815   24.5902 C   0  0  0  0  0  0  0  0  0  0  0  0
   10.8907   13.9368   22.6484 C   0  0  0  0  0  0  0  0  0  0  0  0
   10.4592   14.9047   23.2558 O   0  0  0  0  0  0  0  0  0  0  0  0
   10.5156   13.7663   21.3517 N   0  0  0  0  0  0  0  0  0  0  0  0
    9.0656   14.5043   21.0129 S   0  0  0  0  0  6  0  0  0  0  0  0
    8.3385   14.8905   22.2194 O   0  0  0  0  0  0  0  0  0  0  0  0
    8.2764   13.6193   20.1888 O   0  0  0  0  0  0  0  0  0  0  0  0
    9.5396   15.7726   19.9321 C   0  0  0  0  0  0  0  0  0  0  0  0
   10.5472   15.3684   19.0878 C   0  0  0  0  0  0  0  0  0  0  0  0
   10.8315   16.0687   18.0026 N   0  0  0  0  0  0  0  0  0  0  0  0
   10.1112   17.1684   17.7432 C   0  0  0  0  0  0  0  0  0  0  0  0
    9.0953   17.6215   18.5936 C   0  0  0  0  0  0  0  0  0  0  0  0
    8.1393   19.2167   18.2763 Br  0  0  0  0  0  0  0  0  0  0  0  0
    8.7822   16.9078   19.7242 C   0  0  0  0  0  0  0  0  0  0  0  0
  2  1  1  6
  2  3  1  0
  3  4  1  0
  4  5  2  0
  5  6  1  0
  6  7  2  0
  7  8  1  0
  8  9  2  0
  9 10  1  0
 10 11  2  0
 11 12  1  0
 12 13  2  0
  2 14  1  0
 14 15  2  0
 14 16  1  0
 16 17  1  0
 17 18  2  0
 17 19  2  0
 17 20  1  0
 20 21  2  0
 21 22  1  0
 22 23  2  0
 23 24  1  0
 24 25  1  0
 24 26  2  0
 13  4  1  0
 26 20  1  0
 12  7  1  0
M  END
>  <cnnaffinity>  (39) 
-6.12086

>  <cnnaffinityIC50>  (39) 
757.0769084490531 nanomolar

>  <smiles>  (39) 
C[C@H](OC1=CN=C2C=CC=CC2=C1)C(=O)NS(=O)(=O)C1=CN=CC(Br)=C1 Z1962480676

>  <ref_pdb>  (39) 
Ax0310a

>  <ref_mols>  (39) 
Ax0922a

>  <rationale>  (39) 
Enamine real space elaborations around a merge of x1097 and x0922.

>  <original SMILES>  (39) 
C[C@H](OC1=CN=C2C=CC=CC2=C1)C(=O)NS(=O)(=O)C1=CN=CC(Br)=C1

$$$$
PV-003443640447
     RDKit          3D

 25 28  0  0  0  0  0  0  0  0999 V2000
   12.2784   13.7148   24.7162 C   0  0  0  0  0  0  0  0  0  0  0  0
   11.5092   13.4771   23.4515 C   0  0  2  0  0  0  0  0  0  0  0  0
   10.9816   12.1462   23.3675 O   0  0  0  0  0  0  0  0  0  0  0  0
    9.8282   11.8870   24.0245 C   0  0  0  0  0  0  0  0  0  0  0  0
    9.4139   10.5229   24.0557 C   0  0  0  0  0  0  0  0  0  0  0  0
    8.3734   10.0857   24.7133 N   0  0  0  0  0  0  0  0  0  0  0  0
    7.6431   10.9958   25.4297 C   0  0  0  0  0  0  0  0  0  0  0  0
    6.5525   10.5458   26.2169 C   0  0  0  0  0  0  0  0  0  0  0  0
    5.8326   11.4303   26.9772 C   0  0  0  0  0  0  0  0  0  0  0  0
    6.1437   12.8113   26.9671 C   0  0  0  0  0  0  0  0  0  0  0  0
    7.1752   13.2723   26.1938 C   0  0  0  0  0  0  0  0  0  0  0  0
    7.9456   12.3753   25.4159 C   0  0  0  0  0  0  0  0  0  0  0  0
    9.0449   12.8188   24.6458 C   0  0  0  0  0  0  0  0  0  0  0  0
   12.3926   13.5892   22.2332 C   0  0  0  0  0  0  0  0  0  0  0  0
   13.4884   13.0739   22.2421 O   0  0  0  0  0  0  0  0  0  0  0  0
   11.9265   14.3192   21.1338 N   0  0  0  0  0  0  0  0  0  0  0  0
   12.9129   14.8729   20.2097 C   0  0  0  0  0  0  0  0  0  0  0  0
   12.5021   14.6326   18.7714 C   0  0  0  0  0  0  0  0  0  0  0  0
   11.2144   15.2844   18.5695 N   0  0  0  0  0  0  0  0  0  0  0  0
   10.2485   14.8508   19.4908 C   0  0  0  0  0  0  0  0  0  0  0  0
    8.9045   14.8076   19.2153 C   0  0  0  0  0  0  0  0  0  0  0  0
    7.9876   14.3004   20.0504 N   0  0  0  0  0  0  0  0  0  0  0  0
    8.4188   13.9330   21.2363 C   0  0  0  0  0  0  0  0  0  0  0  0
    9.6736   13.9776   21.6491 N   0  0  0  0  0  0  0  0  0  0  0  0
   10.5922   14.3921   20.7790 C   0  0  0  0  0  0  0  0  0  0  0  0
  2  1  1  1
  2  3  1  0
  3  4  1  0
  4  5  2  0
  5  6  1  0
  6  7  2  0
  7  8  1  0
  8  9  2  0
  9 10  1  0
 10 11  2  0
 11 12  1  0
 12 13  2  0
  2 14  1  0
 14 15  2  0
 14 16  1  0
 16 17  1  0
 17 18  1  0
 18 19  1  0
 19 20  1  0
 20 21  2  0
 21 22  1  0
 22 23  2  0
 23 24  1  0
 24 25  2  0
 13  4  1  0
 25 16  1  0
 12  7  1  0
 25 20  1  0
M  END
>  <cnnaffinity>  (40) 
-6.08172

>  <cnnaffinityIC50>  (40) 
828.4761298637156 nanomolar

>  <smiles>  (40) 
C[C@H](OC1=CN=C2C=CC=CC2=C1)C(=O)N1CCNC2=CN=CN=C21 PV-003443640447

>  <ref_pdb>  (40) 
Ax0310a

>  <ref_mols>  (40) 
Ax0922a

>  <rationale>  (40) 
Enamine real space elaborations around a merge of x1097 and x0922.

>  <original SMILES>  (40) 
C[C@H](OC1=CN=C2C=CC=CC2=C1)C(=O)N1CCNC2=CN=CN=C21

$$$$
Z1962934503
     RDKit          3D

 25 26  0  0  0  0  0  0  0  0999 V2000
   13.0836   13.1159   22.6333 C   0  0  0  0  0  0  0  0  0  0  0  0
   11.7120   13.2301   23.2769 C   0  0  2  0  0  0  0  0  0  0  0  0
   11.0636   11.9580   23.2124 O   0  0  0  0  0  0  0  0  0  0  0  0
    9.9457   11.7649   23.9758 C   0  0  0  0  0  0  0  0  0  0  0  0
    9.4945   10.4130   24.0810 C   0  0  0  0  0  0  0  0  0  0  0  0
    8.4523   10.0361   24.7709 N   0  0  0  0  0  0  0  0  0  0  0  0
    7.7514   10.9989   25.4461 C   0  0  0  0  0  0  0  0  0  0  0  0
    6.6235   10.6086   26.2143 C   0  0  0  0  0  0  0  0  0  0  0  0
    5.9042   11.5415   26.9142 C   0  0  0  0  0  0  0  0  0  0  0  0
    6.2727   12.9081   26.8730 C   0  0  0  0  0  0  0  0  0  0  0  0
    7.3541   13.3075   26.1329 C   0  0  0  0  0  0  0  0  0  0  0  0
    8.1168   12.3631   25.4007 C   0  0  0  0  0  0  0  0  0  0  0  0
    9.2466   12.7439   24.6282 C   0  0  0  0  0  0  0  0  0  0  0  0
   10.9261   14.3058   22.5387 C   0  0  0  0  0  0  0  0  0  0  0  0
   10.9686   15.4745   22.8564 O   0  0  0  0  0  0  0  0  0  0  0  0
   10.2354   13.8273   21.4427 N   0  0  0  0  0  0  0  0  0  0  0  0
    9.0375   14.7279   20.6993 S   0  0  0  0  0  6  0  0  0  0  0  0
    8.5194   13.9059   19.6363 O   0  0  0  0  0  0  0  0  0  0  0  0
    8.0919   15.1586   21.7062 O   0  0  0  0  0  0  0  0  0  0  0  0
    9.9862   16.0583   19.9106 C   0  0  0  0  0  0  0  0  0  0  0  0
   10.2762   15.7473   18.4070 C   0  0  0  0  0  0  0  0  0  0  0  0
   10.9066   16.9048   17.5827 C   0  0  0  0  0  0  0  0  0  0  0  0
   11.1893   14.5290   18.2230 C   0  0  0  0  0  0  0  0  0  0  0  0
    8.9315   15.8119   17.8232 C   0  0  0  0  0  0  0  0  0  0  0  0
    7.9877   16.3506   17.4342 N   0  0  0  0  0  0  0  0  0  0  0  0
  2  1  1  6
  2  3  1  0
  3  4  1  0
  4  5  2  0
  5  6  1  0
  6  7  2  0
  7  8  1  0
  8  9  2  0
  9 10  1  0
 10 11  2  0
 11 12  1  0
 12 13  2  0
  2 14  1  0
 14 15  2  0
 14 16  1  0
 16 17  1  0
 17 18  2  0
 17 19  2  0
 17 20  1  0
 20 21  1  0
 21 22  1  0
 21 23  1  0
 21 24  1  0
 24 25  3  0
 13  4  1  0
 12  7  1  0
M  END
>  <cnnaffinity>  (41) 
-6.01395

>  <cnnaffinityIC50>  (41) 
968.389339786518 nanomolar

>  <smiles>  (41) 
C[C@H](OC1=CN=C2C=CC=CC2=C1)C(=O)NS(=O)(=O)CC(C)(C)C#N Z1962934503

>  <ref_pdb>  (41) 
Ax0310a

>  <ref_mols>  (41) 
Ax0922a

>  <rationale>  (41) 
Enamine real space elaborations around a merge of x1097 and x0922.

>  <original SMILES>  (41) 
C[C@H](OC1=CN=C2C=CC=CC2=C1)C(=O)NS(=O)(=O)CC(C)(C)C#N

$$$$
PV-003719802724
     RDKit          3D

 25 27  0  0  0  0  0  0  0  0999 V2000
   12.0184   13.9896   24.2737 C   0  0  0  0  0  0  0  0  0  0  0  0
   11.1984   13.5990   23.0471 C   0  0  2  0  0  0  0  0  0  0  0  0
   10.7337   12.2538   23.1472 O   0  0  0  0  0  0  0  0  0  0  0  0
    9.6815   11.9858   23.9578 C   0  0  0  0  0  0  0  0  0  0  0  0
    9.3174   10.6077   24.0455 C   0  0  0  0  0  0  0  0  0  0  0  0
    8.3288   10.1514   24.7640 N   0  0  0  0  0  0  0  0  0  0  0  0
    7.5994   11.0538   25.4911 C   0  0  0  0  0  0  0  0  0  0  0  0
    6.5206   10.5827   26.2813 C   0  0  0  0  0  0  0  0  0  0  0  0
    5.7823   11.4571   27.0345 C   0  0  0  0  0  0  0  0  0  0  0  0
    6.0835   12.8401   27.0343 C   0  0  0  0  0  0  0  0  0  0  0  0
    7.1149   13.3159   26.2699 C   0  0  0  0  0  0  0  0  0  0  0  0
    7.8888   12.4363   25.4765 C   0  0  0  0  0  0  0  0  0  0  0  0
    8.9561   12.9015   24.6677 C   0  0  0  0  0  0  0  0  0  0  0  0
   12.0776   13.5842   21.7958 C   0  0  0  0  0  0  0  0  0  0  0  0
   12.9437   12.7480   21.6742 O   0  0  0  0  0  0  0  0  0  0  0  0
   11.8508   14.5503   20.8516 N   0  0  0  0  0  0  0  0  0  0  0  0
   12.4075   14.3860   19.5191 C   0  0  0  0  0  0  0  0  0  0  0  0
   11.5344   15.0780   18.4418 C   0  0  0  0  0  0  0  0  0  0  0  0
   10.2592   15.7739   18.9531 C   0  0  0  0  0  0  0  0  0  0  0  0
    9.1705   14.8007   19.0748 N   0  0  0  0  0  0  0  0  0  0  0  0
    9.8622   16.9511   18.0243 C   0  0  0  0  0  0  0  0  0  0  0  0
    8.6332   17.5109   18.3211 N   0  0  0  0  0  0  0  0  0  0  0  0
   10.5610   17.4014   17.1386 O   0  0  0  0  0  0  0  0  0  0  0  0
   10.4436   16.4294   20.3278 C   0  0  0  0  0  0  0  0  0  0  0  0
   11.5946   15.9306   21.1851 C   0  0  0  0  0  0  0  0  0  0  0  0
  2  1  1  1
  2  3  1  0
  3  4  1  0
  4  5  2  0
  5  6  1  0
  6  7  2  0
  7  8  1  0
  8  9  2  0
  9 10  1  0
 10 11  2  0
 11 12  1  0
 12 13  2  0
  2 14  1  0
 14 15  2  0
 14 16  1  0
 16 17  1  0
 17 18  1  0
 18 19  1  0
 19 20  1  0
 19 21  1  0
 21 22  1  0
 21 23  2  0
 19 24  1  0
 24 25  1  0
 13  4  1  0
 25 16  1  0
 12  7  1  0
M  END
>  <cnnaffinity>  (42) 
-6.01054

>  <cnnaffinityIC50>  (42) 
976.0228832606103 nanomolar

>  <smiles>  (42) 
C[C@H](OC1=CN=C2C=CC=CC2=C1)C(=O)N1CCC(N)(C(N)=O)CC1 PV-003719802724

>  <ref_pdb>  (42) 
Ax0310a

>  <ref_mols>  (42) 
Ax0922a

>  <rationale>  (42) 
Enamine real space elaborations around a merge of x1097 and x0922.

>  <original SMILES>  (42) 
C[C@H](OC1=CN=C2C=CC=CC2=C1)C(=O)N1CCC(N)(C(N)=O)CC1

$$$$
Z1941884464
     RDKit          3D

 26 28  0  0  0  0  0  0  0  0999 V2000
   11.9521   13.8086   24.2980 C   0  0  0  0  0  0  0  0  0  0  0  0
   11.1783   13.3576   23.0592 C   0  0  2  0  0  0  0  0  0  0  0  0
   10.7242   12.0085   23.1813 O   0  0  0  0  0  0  0  0  0  0  0  0
    9.6577   11.7777   23.9939 C   0  0  0  0  0  0  0  0  0  0  0  0
    9.2578   10.4125   24.1258 C   0  0  0  0  0  0  0  0  0  0  0  0
    8.2503   10.0075   24.8509 N   0  0  0  0  0  0  0  0  0  0  0  0
    7.5370   10.9479   25.5452 C   0  0  0  0  0  0  0  0  0  0  0  0
    6.4411   10.5290   26.3442 C   0  0  0  0  0  0  0  0  0  0  0  0
    5.7274   11.4433   27.0737 C   0  0  0  0  0  0  0  0  0  0  0  0
    6.0675   12.8166   27.0357 C   0  0  0  0  0  0  0  0  0  0  0  0
    7.1106   13.2446   26.2581 C   0  0  0  0  0  0  0  0  0  0  0  0
    7.8626   12.3212   25.4905 C   0  0  0  0  0  0  0  0  0  0  0  0
    8.9442   12.7309   24.6701 C   0  0  0  0  0  0  0  0  0  0  0  0
   12.1474   13.3827   21.8749 C   0  0  0  0  0  0  0  0  0  0  0  0
   13.2492   12.9011   21.9640 O   0  0  0  0  0  0  0  0  0  0  0  0
   11.7411   14.1546   20.7257 N   0  0  0  0  0  0  0  0  0  0  0  0
   12.6497   13.9734   19.5253 C   0  0  0  0  0  0  0  0  0  0  0  0
   12.1225   14.8170   18.3622 C   0  0  0  0  0  0  0  0  0  0  0  0
   10.7495   15.4398   18.6162 C   0  0  0  0  0  0  0  0  0  0  0  0
   10.5624   16.2039   20.0060 C   0  0  1  0  0  0  0  0  0  0  0  0
    9.2536   16.0758   20.4838 C   0  0  0  0  0  0  0  0  0  0  0  0
    8.0525   17.2008   19.9863 S   0  0  0  0  0  6  0  0  0  0  0  0
    8.4407   18.7923   20.3522 N   0  0  0  0  0  0  0  0  0  0  0  0
    6.9936   16.8063   20.8906 O   0  0  0  0  0  0  0  0  0  0  0  0
    7.9908   17.2061   18.5284 O   0  0  0  0  0  0  0  0  0  0  0  0
   11.6546   15.6716   20.9797 C   0  0  0  0  0  0  0  0  0  0  0  0
  2  1  1  1
  2  3  1  0
  3  4  1  0
  4  5  2  0
  5  6  1  0
  6  7  2  0
  7  8  1  0
  8  9  2  0
  9 10  1  0
 10 11  2  0
 11 12  1  0
 12 13  2  0
  2 14  1  0
 14 15  2  0
 14 16  1  0
 16 17  1  0
 17 18  1  0
 18 19  1  0
 19 20  1  0
 20 21  1  1
 21 22  1  0
 22 23  1  0
 22 24  2  0
 22 25  2  0
 20 26  1  0
 13  4  1  0
 26 16  1  0
 12  7  1  0
M  END
>  <cnnaffinity>  (43) 
-6.00663

>  <cnnaffinityIC50>  (43) 
984.8497976171691 nanomolar

>  <smiles>  (43) 
C[C@H](OC1=CN=C2C=CC=CC2=C1)C(=O)N1CCCC(CS(N)(=O)=O)C1 Z1941884464

>  <ref_pdb>  (43) 
Ax0310a

>  <ref_mols>  (43) 
Ax0922a

>  <rationale>  (43) 
Enamine real space elaborations around a merge of x1097 and x0922.

>  <original SMILES>  (43) 
C[C@H](OC1=CN=C2C=CC=CC2=C1)C(=O)N1CCCC(CS(N)(=O)=O)C1

$$$$
Z3715991847
     RDKit          3D

 26 29  0  0  0  0  0  0  0  0999 V2000
    8.1390   17.7305   16.4554 C   0  0  0  0  0  0  0  0  0  0  0  0
    8.9786   16.7719   17.2296 C   0  0  0  0  0  0  0  0  0  0  0  0
    8.4630   15.6876   17.6374 N   0  0  0  0  0  0  0  0  0  0  0  0
    9.3565   14.9801   18.4066 O   0  0  0  0  0  0  0  0  0  0  0  0
   10.5388   15.7732   18.6855 C   0  0  0  0  0  0  0  0  0  0  0  0
   10.3910   16.2860   20.1286 C   0  0  0  0  0  0  0  0  0  0  0  0
   11.4836   15.8254   21.0833 C   0  0  0  0  0  0  0  0  0  0  0  0
   11.7847   14.4226   20.8295 N   0  0  0  0  0  0  0  0  0  0  0  0
   12.1076   13.5586   21.8538 C   0  0  0  0  0  0  0  0  0  0  0  0
   13.0643   12.8180   21.8005 O   0  0  0  0  0  0  0  0  0  0  0  0
   11.2229   13.5494   23.0994 C   0  0  2  0  0  0  0  0  0  0  0  0
   12.0392   13.9179   24.3351 C   0  0  0  0  0  0  0  0  0  0  0  0
   10.7556   12.2020   23.1773 O   0  0  0  0  0  0  0  0  0  0  0  0
    9.6969   11.9375   23.9791 C   0  0  0  0  0  0  0  0  0  0  0  0
    9.3231   10.5631   24.0648 C   0  0  0  0  0  0  0  0  0  0  0  0
    8.3258   10.1170   24.7778 N   0  0  0  0  0  0  0  0  0  0  0  0
    7.5984   11.0253   25.4987 C   0  0  0  0  0  0  0  0  0  0  0  0
    6.5147   10.5637   26.2874 C   0  0  0  0  0  0  0  0  0  0  0  0
    5.7775   11.4404   27.0390 C   0  0  0  0  0  0  0  0  0  0  0  0
    6.0830   12.8235   27.0331 C   0  0  0  0  0  0  0  0  0  0  0  0
    7.1180   13.2931   26.2691 C   0  0  0  0  0  0  0  0  0  0  0  0
    7.8927   12.4069   25.4829 C   0  0  0  0  0  0  0  0  0  0  0  0
    8.9697   12.8605   24.6815 C   0  0  0  0  0  0  0  0  0  0  0  0
   12.4901   14.2256   19.5708 C   0  0  0  0  0  0  0  0  0  0  0  0
   11.7652   14.8886   18.3875 C   0  0  0  0  0  0  0  0  0  0  0  0
   10.4118   16.9076   17.6444 C   0  0  0  0  0  0  0  0  0  0  0  0
  1  2  1  0
  2  3  2  0
  3  4  1  0
  4  5  1  0
  5  6  1  0
  6  7  1  0
  7  8  1  0
  8  9  1  0
  9 10  2  0
  9 11  1  0
 11 12  1  1
 11 13  1  0
 13 14  1  0
 14 15  2  0
 15 16  1  0
 16 17  2  0
 17 18  1  0
 18 19  2  0
 19 20  1  0
 20 21  2  0
 21 22  1  0
 22 23  2  0
  8 24  1  0
 24 25  1  0
  5 26  1  0
 26  2  1  0
 25  5  1  0
 23 14  1  0
 22 17  1  0
M  END
>  <cnnaffinity>  (44) 
-6.00069

>  <cnnaffinityIC50>  (44) 
998.4124777345353 nanomolar

>  <smiles>  (44) 
CC1=NOC2(CCN(C(=O)[C@H](C)OC3=CN=C4C=CC=CC4=C3)CC2)C1 Z3715991847

>  <ref_pdb>  (44) 
Ax0310a

>  <ref_mols>  (44) 
Ax0922a

>  <rationale>  (44) 
Enamine real space elaborations around a merge of x1097 and x0922.

>  <original SMILES>  (44) 
CC1=NOC2(CCN(C(=O)[C@H](C)OC3=CN=C4C=CC=CC4=C3)CC2)C1

$$$$
Z2054438294
     RDKit          3D

 26 28  0  0  0  0  0  0  0  0999 V2000
   11.9918   14.1050   24.5486 C   0  0  0  0  0  0  0  0  0  0  0  0
   11.2271   13.5703   23.3422 C   0  0  2  0  0  0  0  0  0  0  0  0
   10.8540   12.2105   23.5129 O   0  0  0  0  0  0  0  0  0  0  0  0
    9.7202   11.9600   24.2161 C   0  0  0  0  0  0  0  0  0  0  0  0
    9.3324   10.5902   24.2637 C   0  0  0  0  0  0  0  0  0  0  0  0
    8.2877   10.1429   24.9041 N   0  0  0  0  0  0  0  0  0  0  0  0
    7.5151   11.0508   25.5766 C   0  0  0  0  0  0  0  0  0  0  0  0
    6.3838   10.5819   26.2914 C   0  0  0  0  0  0  0  0  0  0  0  0
    5.5833   11.4584   26.9769 C   0  0  0  0  0  0  0  0  0  0  0  0
    5.8770   12.8438   26.9855 C   0  0  0  0  0  0  0  0  0  0  0  0
    6.9673   13.3170   26.3036 C   0  0  0  0  0  0  0  0  0  0  0  0
    7.8082   12.4322   25.5817 C   0  0  0  0  0  0  0  0  0  0  0  0
    8.9433   12.8847   24.8613 C   0  0  0  0  0  0  0  0  0  0  0  0
   12.1273   13.5847   22.1039 C   0  0  0  0  0  0  0  0  0  0  0  0
   13.1311   12.9003   22.0741 O   0  0  0  0  0  0  0  0  0  0  0  0
   11.7828   14.4036   21.0578 N   0  0  0  0  0  0  0  0  0  0  0  0
   12.5924   14.1896   19.8670 C   0  0  0  0  0  0  0  0  0  0  0  0
   12.2517   14.9081   18.5677 C   0  0  0  0  0  0  0  0  0  0  0  0
   10.8787   15.4016   18.1219 C   0  0  0  0  0  0  0  0  0  0  0  0
    9.9801   16.2502   19.0187 C   0  0  1  0  0  0  0  0  0  0  0  0
    8.6624   16.5808   18.3156 C   0  0  0  0  0  0  0  0  0  0  0  0
    8.7256   17.7682   17.3877 C   0  0  0  0  0  0  0  0  0  0  0  0
    7.8675   17.7306   16.3296 N   0  0  0  0  0  0  0  0  0  0  0  0
    9.4456   18.7228   17.6121 O   0  0  0  0  0  0  0  0  0  0  0  0
    9.7449   15.6273   20.3880 C   0  0  0  0  0  0  0  0  0  0  0  0
   11.0127   15.6218   21.2388 C   0  0  0  0  0  0  0  0  0  0  0  0
  2  1  1  1
  2  3  1  0
  3  4  1  0
  4  5  2  0
  5  6  1  0
  6  7  2  0
  7  8  1  0
  8  9  2  0
  9 10  1  0
 10 11  2  0
 11 12  1  0
 12 13  2  0
  2 14  1  0
 14 15  2  0
 14 16  1  0
 16 17  1  0
 17 18  1  0
 18 19  1  0
 19 20  1  0
 20 21  1  6
 21 22  1  0
 22 23  1  0
 22 24  2  0
 20 25  1  0
 25 26  1  0
 13  4  1  0
 26 16  1  0
 12  7  1  0
M  END
>  <cnnaffinity>  (45) 
-5.93772

>  <cnnaffinityIC50>  (45) 
1154.197156397432 nanomolar

>  <smiles>  (45) 
C[C@H](OC1=CN=C2C=CC=CC2=C1)C(=O)N1CCCC(CC(N)=O)CC1 Z2054438294

>  <ref_pdb>  (45) 
Ax0310a

>  <ref_mols>  (45) 
Ax0922a

>  <rationale>  (45) 
Enamine real space elaborations around a merge of x1097 and x0922.

>  <original SMILES>  (45) 
C[C@H](OC1=CN=C2C=CC=CC2=C1)C(=O)N1CCCC(CC(N)=O)CC1

$$$$
Z4188189473
     RDKit          3D

 24 25  0  0  0  0  0  0  0  0999 V2000
    9.6131   17.3105   16.8828 C   0  0  0  0  0  0  0  0  0  0  0  0
   10.0556   17.8182   17.5050 S   0  0  0  0  0  0  0  0  0  0  0  0
    8.6136   18.4000   18.8739 C   0  0  0  0  0  0  0  0  0  0  0  0
    8.2887   17.0132   19.2910 C   0  0  0  0  0  0  0  0  0  0  0  0
    9.4033   16.1360   19.8900 C   0  0  0  0  0  0  0  0  0  0  0  0
    8.6853   14.7533   20.7537 S   0  0  0  0  0  6  0  0  0  0  0  0
    8.1491   13.9017   19.7225 O   0  0  0  0  0  0  0  0  0  0  0  0
    7.8274   15.1251   21.8616 O   0  0  0  0  0  0  0  0  0  0  0  0
   10.0455   13.9447   21.3060 N   0  0  0  0  0  0  0  0  0  0  0  0
   10.8163   14.4186   22.3492 C   0  0  0  0  0  0  0  0  0  0  0  0
   10.9272   15.5907   22.6370 O   0  0  0  0  0  0  0  0  0  0  0  0
   11.5960   13.3419   23.0962 C   0  0  2  0  0  0  0  0  0  0  0  0
   12.9711   13.2023   22.4681 C   0  0  0  0  0  0  0  0  0  0  0  0
   10.9500   12.0729   23.0483 O   0  0  0  0  0  0  0  0  0  0  0  0
    9.8518   11.8787   23.8377 C   0  0  0  0  0  0  0  0  0  0  0  0
    9.4230   10.5241   23.9380 C   0  0  0  0  0  0  0  0  0  0  0  0
    8.4145   10.1239   24.6592 N   0  0  0  0  0  0  0  0  0  0  0  0
    7.7311   11.0704   25.3739 C   0  0  0  0  0  0  0  0  0  0  0  0
    6.6621   10.6423   26.2016 C   0  0  0  0  0  0  0  0  0  0  0  0
    5.9611   11.5464   26.9531 C   0  0  0  0  0  0  0  0  0  0  0  0
    6.2768   12.9260   26.8936 C   0  0  0  0  0  0  0  0  0  0  0  0
    7.2966   13.3653   26.0866 C   0  0  0  0  0  0  0  0  0  0  0  0
    8.0546   12.4454   25.3169 C   0  0  0  0  0  0  0  0  0  0  0  0
    9.1506   12.8489   24.5046 C   0  0  0  0  0  0  0  0  0  0  0  0
  1  2  1  0
  2  3  1  0
  3  4  1  0
  4  5  1  0
  5  6  1  0
  6  7  2  0
  6  8  2  0
  6  9  1  0
  9 10  1  0
 10 11  2  0
 10 12  1  0
 12 13  1  6
 12 14  1  0
 14 15  1  0
 15 16  2  0
 16 17  1  0
 17 18  2  0
 18 19  1  0
 19 20  2  0
 20 21  1  0
 21 22  2  0
 22 23  1  0
 23 24  2  0
 24 15  1  0
 23 18  1  0
M  END
>  <cnnaffinity>  (46) 
-5.92069

>  <cnnaffinityIC50>  (46) 
1200.3558130584815 nanomolar

>  <smiles>  (46) 
CSCCCS(=O)(=O)NC(=O)[C@H](C)OC1=CN=C2C=CC=CC2=C1 Z4188189473

>  <ref_pdb>  (46) 
Ax0310a

>  <ref_mols>  (46) 
Ax0922a

>  <rationale>  (46) 
Enamine real space elaborations around a merge of x1097 and x0922.

>  <original SMILES>  (46) 
CSCCCS(=O)(=O)NC(=O)[C@H](C)OC1=CN=C2C=CC=CC2=C1

$$$$
Z1962495039
     RDKit          3D

 25 27  0  0  0  0  0  0  0  0999 V2000
   13.0865   13.0439   22.4121 C   0  0  0  0  0  0  0  0  0  0  0  0
   11.7751   12.9845   23.1909 C   0  0  2  0  0  0  0  0  0  0  0  0
   11.2377   11.6362   23.1681 O   0  0  0  0  0  0  0  0  0  0  0  0
   10.0771   11.4289   23.8970 C   0  0  0  0  0  0  0  0  0  0  0  0
    9.5611   10.1253   24.0600 C   0  0  0  0  0  0  0  0  0  0  0  0
    8.4581    9.8389   24.7859 N   0  0  0  0  0  0  0  0  0  0  0  0
    7.8140   10.8575   25.3884 C   0  0  0  0  0  0  0  0  0  0  0  0
    6.6662   10.5886   26.1382 C   0  0  0  0  0  0  0  0  0  0  0  0
    5.9616   11.6172   26.7805 C   0  0  0  0  0  0  0  0  0  0  0  0
    6.4148   12.9366   26.6800 C   0  0  0  0  0  0  0  0  0  0  0  0
    7.5663   13.2265   25.9405 C   0  0  0  0  0  0  0  0  0  0  0  0
    8.2603   12.1946   25.2904 C   0  0  0  0  0  0  0  0  0  0  0  0
    9.4032   12.4722   24.5456 C   0  0  0  0  0  0  0  0  0  0  0  0
   10.7933   14.0129   22.6016 C   0  0  0  0  0  0  0  0  0  0  0  0
   10.4636   14.9794   23.2694 O   0  0  0  0  0  0  0  0  0  0  0  0
   10.2215   13.8753   21.3751 N   0  0  0  0  0  0  0  0  0  0  0  0
    8.7064   14.5738   21.2861 S   0  0  0  0  0  6  0  0  0  0  0  0
    7.8333   13.5671   20.6969 O   0  0  0  0  0  0  0  0  0  0  0  0
    8.2131   14.9201   22.6216 O   0  0  0  0  0  0  0  0  0  0  0  0
    8.9459   15.9430   20.1616 C   0  0  0  0  0  0  0  0  0  0  0  0
    9.9292   15.9689   19.2125 C   0  0  0  0  0  0  0  0  0  0  0  0
   11.3040   14.6489   18.9882 Br  0  0  0  0  0  0  0  0  0  0  0  0
    9.7880   17.1073   18.3407 C   0  0  0  0  0  0  0  0  0  0  0  0
    8.7166   17.9003   18.6858 C   0  0  0  0  0  0  0  0  0  0  0  0
    7.8516   17.3055   20.1001 S   0  0  0  0  0  0  0  0  0  0  0  0
  2  1  1  6
  2  3  1  0
  3  4  1  0
  4  5  2  0
  5  6  1  0
  6  7  2  0
  7  8  1  0
  8  9  2  0
  9 10  1  0
 10 11  2  0
 11 12  1  0
 12 13  2  0
  2 14  1  0
 14 15  2  0
 14 16  1  0
 16 17  1  0
 17 18  2  0
 17 19  2  0
 17 20  1  0
 20 21  2  0
 21 22  1  0
 21 23  1  0
 23 24  2  0
 24 25  1  0
 13  4  1  0
 25 20  1  0
 12  7  1  0
M  END
>  <cnnaffinity>  (47) 
-5.91012

>  <cnnaffinityIC50>  (47) 
1229.92888194808 nanomolar

>  <smiles>  (47) 
C[C@H](OC1=CN=C2C=CC=CC2=C1)C(=O)NS(=O)(=O)C1=C(Br)C=CS1 Z1962495039

>  <ref_pdb>  (47) 
Ax0310a

>  <ref_mols>  (47) 
Ax0922a

>  <rationale>  (47) 
Enamine real space elaborations around a merge of x1097 and x0922.

>  <original SMILES>  (47) 
C[C@H](OC1=CN=C2C=CC=CC2=C1)C(=O)NS(=O)(=O)C1=C(Br)C=CS1

$$$$
